32
Lattice="6.826623861495979 0.0 0.0 0.0 9.819216506717172 0.0 0.0 0.0 10.036036883137772" Properties=species:S:1:pos:R:3:initial_magmoms:R:1:castep_labels:S:1:forces:R:3 n_minim_iter=1 energy=-173.179726871544 stress="7.797999291976342e-05 -0.0 -0.0 -0.0 5.1208744873920135e-05 0.0 -0.0 0.0 0.0001405750653911938" free_energy=-173.179726871544 pbc="T T T"
P        2.21885562       4.19237643       6.58163764       0.00000000 NULL      -0.00693500       0.01125700      -0.00657100
P        4.60776824       5.62684008      11.59965608       0.00000000 NULL       0.00693500      -0.01125700      -0.00657100
P        1.19445631       9.10198468       6.58163764       0.00000000 NULL       0.00693400       0.01126100      -0.00657100
P        5.63216755       0.71723182      11.59965608       0.00000000 NULL      -0.00693400      -0.01126100      -0.00657100
P        1.11170504       1.96724617       8.64371039       0.00000000 NULL       0.00980600       0.00384400      -0.00173300
P        5.71491882       7.85197034       3.62569195       0.00000000 NULL      -0.00980600      -0.00384400      -0.00173300
P        2.30160689       6.87685442       8.64371039       0.00000000 NULL      -0.00980600       0.00384500      -0.00173200
P        4.52501697       2.94236208       3.62569195       0.00000000 NULL       0.00980600      -0.00384500      -0.00173200
P        2.76238408       2.00386324       7.11141305       0.00000000 NULL      -0.00485700      -0.00360700       0.00585900
P        4.06423978       7.81535326       2.09339461       0.00000000 NULL       0.00485700       0.00360700       0.00585900
P        0.65092785       6.91347150       7.11141305       0.00000000 NULL       0.00485600      -0.00360600       0.00585900
P        6.17569601       2.90574501       2.09339461       0.00000000 NULL      -0.00485600       0.00360600       0.00585900
P        6.48287434       0.51514169       7.69833436       0.00000000 NULL       0.00237800      -0.00182700       0.00039300
P        0.34374952       9.30407482       2.68031592       0.00000000 NULL      -0.00237800       0.00182700       0.00039300
P        3.75706145       5.42474994       7.69833436       0.00000000 NULL      -0.00237600      -0.00182600       0.00039400
P        3.06956241       4.39446657       2.68031592       0.00000000 NULL       0.00237600       0.00182600       0.00039400
P        2.92693653       8.96391132       8.00725543       0.00000000 NULL       0.00419100      -0.00792100       0.00175200
P        3.89968733       0.85530519       2.98923699       0.00000000 NULL      -0.00419100       0.00792100       0.00175200
P        0.48637540       4.05430307       8.00725543       0.00000000 NULL      -0.00419100      -0.00792100       0.00175100
P        6.34024846       5.76491344       2.98923699       0.00000000 NULL       0.00419100       0.00792100       0.00175100
P       -0.54312495       1.60264554       5.77269232       0.00000000 NULL       0.00943100      -0.00404700      -0.00733000
P        7.36974882       8.21657097       0.75467387       0.00000000 NULL      -0.00943100       0.00404700      -0.00733000
P        3.95643689       6.51225379       5.77269232       0.00000000 NULL      -0.00942900      -0.00404700      -0.00733000
P        2.87018698       3.30696272       0.75467387       0.00000000 NULL       0.00942900       0.00404600      -0.00733000
P        2.55215387       1.24237037       1.33764654       0.00000000 NULL       0.00686600      -0.00470300       0.00463800
P        4.27446999       8.57684614       6.35566498       0.00000000 NULL      -0.00686600       0.00470300       0.00463800
P        0.86115806       6.15197862       1.33764654       0.00000000 NULL      -0.00686700      -0.00470300       0.00463800
P        5.96546580       3.66723789       6.35566498       0.00000000 NULL       0.00686700       0.00470300       0.00463900
P        5.19010270       8.60344358       0.29868556       0.00000000 NULL       0.00164600       0.00538700       0.00299100
P        1.63652116       1.21577293       5.31670400       0.00000000 NULL      -0.00164600      -0.00538700       0.00299100
P        5.04983309       3.69383532       0.29868556       0.00000000 NULL      -0.00164500       0.00538600       0.00299000
P        1.77679077       6.12538118       5.31670400       0.00000000 NULL       0.00164500      -0.00538600       0.00299000
32
Lattice="6.826131093394777 0.0 0.0 0.0 9.818751049499237 0.0 0.0 0.0 10.03473097874915" Properties=species:S:1:pos:R:3:initial_magmoms:R:1:castep_labels:S:1:forces:R:3 n_minim_iter=2 energy=-173.17973806747 stress="-4.029328640635028e-05 0.0 0.0 0.0 -5.745138696462638e-05 0.0 0.0 0.0 1.278679937618496e-06" free_energy=-173.17973806747 pbc="T T T"
P        2.21868591       4.19219319       6.58077219       0.00000000 NULL      -0.00645400       0.01058100      -0.00793000
P        4.60744518       5.62655786      11.59813767       0.00000000 NULL       0.00645400      -0.01058100      -0.00793000
P        1.19437963       9.10156872       6.58077219       0.00000000 NULL       0.00645400       0.01058000      -0.00793100
P        5.63175146       0.71718233      11.59813767       0.00000000 NULL      -0.00645400      -0.01058000      -0.00793100
P        1.11163829       1.96715821       8.64258327       0.00000000 NULL       0.00962600       0.00356100       0.00125500
P        5.71449281       7.85159284       3.62521778       0.00000000 NULL      -0.00962600      -0.00356100       0.00125500
P        2.30142726       6.87653373       8.64258327       0.00000000 NULL      -0.00962500       0.00356100       0.00125400
P        4.52470383       2.94221732       3.62521778       0.00000000 NULL       0.00962500      -0.00356100       0.00125400
P        2.76217800       2.00376329       7.11049576       0.00000000 NULL      -0.00193000      -0.00350600       0.00603800
P        4.06395309       7.81498776       2.09313027       0.00000000 NULL       0.00193000       0.00350600       0.00603800
P        0.65088754       6.91313882       7.11049576       0.00000000 NULL       0.00193000      -0.00350700       0.00603800
P        6.17524355       2.90561223       2.09313027       0.00000000 NULL      -0.00193000       0.00350700       0.00603800
P        6.48240966       0.51511475       7.69733318       0.00000000 NULL       0.00024500      -0.00326200       0.00260700
P        0.34372144       9.30363630       2.67996769       0.00000000 NULL      -0.00024500       0.00326200       0.00260700
P        3.75678698       5.42449028       7.69733318       0.00000000 NULL      -0.00024600      -0.00326200       0.00260700
P        3.06934411       4.39426077       2.67996769       0.00000000 NULL       0.00024500       0.00326200       0.00260700
P        2.92673102       8.96347551       8.00621593       0.00000000 NULL       0.00439600      -0.00631500       0.00452500
P        3.89940007       0.85527554       2.98885044       0.00000000 NULL      -0.00439600       0.00631500       0.00452500
P        0.48633453       4.05409998       8.00621593       0.00000000 NULL      -0.00439500      -0.00631400       0.00452600
P        6.33979657       5.76465107       2.98885044       0.00000000 NULL       0.00439500       0.00631400       0.00452600
P       -0.54307277       1.60256400       5.77193108       0.00000000 NULL       0.00758700      -0.00413400      -0.00940300
P        7.36920387       8.21618705       0.75456559       0.00000000 NULL      -0.00758700       0.00413400      -0.00940300
P        3.95613832       6.51193952       5.77193108       0.00000000 NULL      -0.00758800      -0.00413400      -0.00940300
P        2.86999277       3.30681152       0.75456559       0.00000000 NULL       0.00758800       0.00413400      -0.00940300
P        2.55197909       1.24230500       1.33747886       0.00000000 NULL       0.00493500      -0.00568400       0.00301800
P        4.27415200       8.57644605       6.35484435       0.00000000 NULL      -0.00493500       0.00568400       0.00301800
P        0.86108645       6.15168053       1.33747886       0.00000000 NULL      -0.00493500      -0.00568400       0.00301800
P        5.96504464       3.66707052       6.35484435       0.00000000 NULL       0.00493500       0.00568400       0.00301800
P        5.18973033       8.60304316       0.29865081       0.00000000 NULL       0.00074000       0.00560300      -0.00010900
P        1.63640076       1.21570789       5.31601630       0.00000000 NULL      -0.00074000      -0.00560300      -0.00010900
P        5.04946631       3.69366764       0.29865081       0.00000000 NULL      -0.00074000       0.00560300      -0.00010900
P        1.77666478       6.12508341       5.31601630       0.00000000 NULL       0.00074000      -0.00560300      -0.00010900
32
Lattice="6.826652190470748 0.0 0.0 0.0 9.820700552339606 0.0 0.0 0.0 10.032560376204286" Properties=species:S:1:pos:R:3:initial_magmoms:R:1:castep_labels:S:1:forces:R:3 n_minim_iter=3 energy=-173.179756757888 stress="-1.2771183494398179e-05 -0.0 -0.0 -0.0 0.00011006411106988325 -0.0 -0.0 -0.0 -6.931229039683855e-05" free_energy=-173.179756757888 pbc="T T T"
P        2.21879392       4.19312592       6.57927767       0.00000000 NULL      -0.00559900       0.00946100      -0.00846300
P        4.60785827       5.62757464      11.59555786       0.00000000 NULL       0.00559900      -0.00946100      -0.00846300
P        1.19453217       9.10347619       6.57927767       0.00000000 NULL       0.00560000       0.00946300      -0.00846300
P        5.63212002       0.71722436      11.59555786       0.00000000 NULL      -0.00560000      -0.00946300      -0.00846300
P        1.11181347       1.96758269       8.64071888       0.00000000 NULL       0.00717900       0.00414600       0.00239300
P        5.71483872       7.85311787       3.62443869       0.00000000 NULL      -0.00717900      -0.00414600       0.00239400
P        2.30151262       6.87793296       8.64071888       0.00000000 NULL      -0.00717800       0.00414600       0.00239300
P        4.52513957       2.94276759       3.62443869       0.00000000 NULL       0.00717800      -0.00414600       0.00239300
P        2.76236433       2.00412815       7.10901369       0.00000000 NULL      -0.00185700      -0.00146300       0.00567900
P        4.06428786       7.81657240       2.09273350       0.00000000 NULL       0.00185700       0.00146300       0.00567900
P        0.65096177       6.91447843       7.10901369       0.00000000 NULL       0.00185700      -0.00146200       0.00567900
P        6.17569042       2.90622212       2.09273350       0.00000000 NULL      -0.00185700       0.00146200       0.00567900
P        6.48291154       0.51518974       7.69568760       0.00000000 NULL       0.00213800      -0.00255100       0.00433400
P        0.34374065       9.30551081       2.67940742       0.00000000 NULL      -0.00213800       0.00255100       0.00433400
P        3.75706674       5.42554002       7.69568760       0.00000000 NULL      -0.00213800      -0.00255000       0.00433500
P        3.06958545       4.39516053       2.67940742       0.00000000 NULL       0.00213900       0.00255000       0.00433500
P        2.92699505       8.96519262       8.00452021       0.00000000 NULL       0.00187000      -0.00732900       0.00669500
P        3.89965714       0.85550793       2.98824002       0.00000000 NULL      -0.00187000       0.00732900       0.00669500
P        0.48633104       4.05484235       8.00452021       0.00000000 NULL      -0.00187000      -0.00732900       0.00669600
P        6.34032115       5.76585821       2.98824002       0.00000000 NULL       0.00187000       0.00732900       0.00669600
P       -0.54303925       1.60284376       5.77059936       0.00000000 NULL       0.00762400      -0.00051900      -0.00977700
P        7.36969144       8.21785680       0.75431917       0.00000000 NULL      -0.00762300       0.00051900      -0.00977700
P        3.95636535       6.51319403       5.77059936       0.00000000 NULL      -0.00762400      -0.00051900      -0.00977700
P        2.87028684       3.30750652       0.75431917       0.00000000 NULL       0.00762400       0.00051900      -0.00977700
P        2.55222431       1.24250073       1.33722134       0.00000000 NULL       0.00447900      -0.00109200       0.00069500
P        4.27442789       8.57819982       6.35350152       0.00000000 NULL      -0.00447900       0.00109200       0.00069500
P        0.86110179       6.15285101       1.33722134       0.00000000 NULL      -0.00447800      -0.00109200       0.00069400
P        5.96555040       3.66784954       6.35350152       0.00000000 NULL       0.00447800       0.00109200       0.00069400
P        5.19013543       8.60480316       0.29859208       0.00000000 NULL       0.00113600       0.00576800      -0.00155700
P        1.63651676       1.21589739       5.31487226       0.00000000 NULL      -0.00113600      -0.00576800      -0.00155700
P        5.04984285       3.69445288       0.29859208       0.00000000 NULL      -0.00113700       0.00576600      -0.00155700
P        1.77680934       6.12624767       5.31487226       0.00000000 NULL       0.00113700      -0.00576600      -0.00155700
32
Lattice="6.830291059128048 0.0 0.0 0.0 9.817646913404252 0.0 0.0 0.0 10.030452844305282" Properties=species:S:1:pos:R:3:initial_magmoms:R:1:castep_labels:S:1:forces:R:3 n_minim_iter=4 energy=-173.179843390612 stress="0.00015047219560012737 -0.0 0.0 -0.0 -6.339427349460954e-05 0.0 0.0 0.0 -7.524353146252789e-05" free_energy=-173.179843390612 pbc="T T T"
P        2.21958539       4.19246681       6.57740841       0.00000000 NULL      -0.00578500       0.00327800       0.00044000
P        4.61070566       5.62518010      11.59263483       0.00000000 NULL       0.00578500      -0.00327800       0.00044000
P        1.19556014       9.10129027       6.57740841       0.00000000 NULL       0.00578500       0.00327800       0.00044000
P        5.63473092       0.71635665      11.59263483       0.00000000 NULL      -0.00578500      -0.00327800       0.00044000
P        1.11296371       1.96720507       8.63897011       0.00000000 NULL       0.00166000      -0.00249100       0.00462800
P        5.71732735       7.85044185       3.62374369       0.00000000 NULL      -0.00165900       0.00249100       0.00462800
P        2.30218182       6.87602852       8.63897011       0.00000000 NULL      -0.00165900      -0.00249100       0.00462800
P        4.52810924       2.94161839       3.62374369       0.00000000 NULL       0.00165900       0.00249100       0.00462800
P        2.76368758       2.00332156       7.10788693       0.00000000 NULL      -0.00240000       0.00027500       0.00169700
P        4.06660348       7.81432535       2.09266050       0.00000000 NULL       0.00240000      -0.00027500       0.00169700
P        0.65145795       6.91214502       7.10788693       0.00000000 NULL       0.00240000       0.00027500       0.00169700
P        6.17883311       2.90550189       2.09266050       0.00000000 NULL      -0.00240000      -0.00027500       0.00169700
P        6.48643742       0.51485428       7.69423952       0.00000000 NULL       0.01038500      -0.00158500       0.00222500
P        0.34385364       9.30279263       2.67901310       0.00000000 NULL      -0.01038400       0.00158600       0.00222500
P        3.75899917       5.42367774       7.69423952       0.00000000 NULL      -0.01038500      -0.00158500       0.00222500
P        3.07129189       4.39396918       2.67901310       0.00000000 NULL       0.01038500       0.00158500       0.00222500
P        2.92878253       8.96197862       8.00312810       0.00000000 NULL      -0.00446300      -0.00049300       0.00322900
P        3.90150853       0.85566829       2.98790168       0.00000000 NULL       0.00446300       0.00049300       0.00322900
P        0.48636300       4.05315516       8.00312810       0.00000000 NULL       0.00446300      -0.00049300       0.00322900
P        6.34392806       5.76449175       2.98790168       0.00000000 NULL      -0.00446300       0.00049300       0.00322900
P       -0.54283743       1.60215209       5.76881878       0.00000000 NULL       0.00974200       0.00059800      -0.00834400
P        7.37312849       8.21549482       0.75359235       0.00000000 NULL      -0.00974200      -0.00059800      -0.00834400
P        3.95798296       6.51097555       5.76881878       0.00000000 NULL      -0.00974300       0.00059800      -0.00834400
P        2.87230810       3.30667136       0.75359235       0.00000000 NULL       0.00974300      -0.00059800      -0.00834400
P        2.55390362       1.24185109       1.33710447       0.00000000 NULL       0.00381200       0.00111100      -0.00041100
P        4.27638744       8.57579582       6.35233089       0.00000000 NULL      -0.00381200      -0.00111100      -0.00041100
P        0.86124191       6.15067455       1.33710447       0.00000000 NULL      -0.00381200       0.00111100      -0.00041100
P        5.96904915       3.66697237       6.35233089       0.00000000 NULL       0.00381200      -0.00111100      -0.00041100
P        5.19296426       8.60247607       0.29852989       0.00000000 NULL       0.00125600       0.00119700      -0.00346400
P        1.63732680       1.21517085       5.31375631       0.00000000 NULL      -0.00125600      -0.00119700      -0.00346300
P        5.05247233       3.69365261       0.29852989       0.00000000 NULL      -0.00125600       0.00119700      -0.00346400
P        1.77781873       6.12399430       5.31375631       0.00000000 NULL       0.00125600      -0.00119700      -0.00346300
32
Lattice="6.828469164267191 0.0 0.0 0.0 9.818298596043421 0.0 0.0 0.0 10.032210781531187" Properties=species:S:1:pos:R:3:initial_magmoms:R:1:castep_labels:S:1:forces:R:3 n_minim_iter=5 energy=-173.179883350714 stress="-2.1260808898860823e-06 -0.0 -0.0 -0.0 -4.698192735692321e-06 0.0 -0.0 0.0 7.850144824194764e-06" free_energy=-173.179883350714 pbc="T T T"
P        2.21878990       4.19304902       6.57834580       0.00000000 NULL      -0.00512200      -0.00123900       0.00276300
P        4.60967927       5.62524957      11.59445119       0.00000000 NULL       0.00512200       0.00124000       0.00276300
P        1.19544469       9.10219832       6.57834580       0.00000000 NULL       0.00512200      -0.00123700       0.00276300
P        5.63302448       0.71610027      11.59445119       0.00000000 NULL      -0.00512200       0.00123700       0.00276300
P        1.11292355       1.96742767       8.64053745       0.00000000 NULL      -0.00056400      -0.00394100       0.00384900
P        5.71554561       7.85087092       3.62443206       0.00000000 NULL       0.00056400       0.00394100       0.00384900
P        2.30131103       6.87657697       8.64053745       0.00000000 NULL       0.00056500      -0.00394100       0.00384900
P        4.52715813       2.94172162       3.62443206       0.00000000 NULL      -0.00056500       0.00394100       0.00384900
P        2.76287203       2.00337437       7.10930474       0.00000000 NULL       0.00104800       0.00227000      -0.00173100
P        4.06559713       7.81492423       2.09319935       0.00000000 NULL      -0.00104800      -0.00227000      -0.00173100
P        0.65136255       6.91252367       7.10930474       0.00000000 NULL      -0.00104800       0.00227100      -0.00173100
P        6.17710662       2.90577493       2.09319935       0.00000000 NULL       0.00104800      -0.00227100      -0.00173100
P        6.48479090       0.51480226       7.69567482       0.00000000 NULL       0.00828400       0.00110200      -0.00228000
P        0.34367826       9.30349634       2.67956943       0.00000000 NULL      -0.00828400      -0.00110200      -0.00228000
P        3.75791285       5.42395156       7.69567482       0.00000000 NULL      -0.00828400       0.00110300      -0.00227900
P        3.07055632       4.39434704       2.67956943       0.00000000 NULL       0.00828400      -0.00110300      -0.00227900
P        2.92807990       8.96238078       8.00467662       0.00000000 NULL      -0.00404800       0.00140500       0.00302900
P        3.90038926       0.85591782       2.98857123       0.00000000 NULL       0.00404800      -0.00140500       0.00302900
P        0.48615468       4.05323148       8.00467662       0.00000000 NULL       0.00404900       0.00140500       0.00302900
P        6.34231448       5.76506711       2.98857123       0.00000000 NULL      -0.00404900      -0.00140500       0.00302900
P       -0.54242464       1.60217570       5.76953406       0.00000000 NULL       0.00371200       0.00269600      -0.00133200
P        7.37089381       8.21612290       0.75342867       0.00000000 NULL      -0.00371200      -0.00269600      -0.00133200
P        3.95665922       6.51132500       5.76953406       0.00000000 NULL      -0.00371300       0.00269700      -0.00133200
P        2.87180994       3.30697360       0.75342867       0.00000000 NULL       0.00371300      -0.00269700      -0.00133200
P        2.55338359       1.24182217       1.33740949       0.00000000 NULL       0.00300100       0.00470600      -0.00228100
P        4.27508558       8.57647643       6.35351488       0.00000000 NULL      -0.00300100      -0.00470600      -0.00228100
P        0.86085100       6.15097147       1.33740949       0.00000000 NULL      -0.00300000       0.00470700      -0.00228100
P        5.96761817       3.66732713       6.35351488       0.00000000 NULL       0.00300000      -0.00470700      -0.00228100
P        5.19161318       8.60320863       0.29856459       0.00000000 NULL      -0.00376000       0.00040500      -0.00201700
P        1.63685598       1.21508996       5.31466998       0.00000000 NULL       0.00376000      -0.00040500      -0.00201700
P        5.05109056       3.69405933       0.29856459       0.00000000 NULL       0.00375900       0.00040400      -0.00201700
P        1.77737860       6.12423926       5.31466998       0.00000000 NULL      -0.00375900      -0.00040400      -0.00201700
