27
Lattice="8.700579999999997 -1.5888901852880441e-15 0.0 -4.350289999999996 7.534923307658809 0.0 0.0 0.0 9.278109999999998" Properties=species:S:1:pos:R:3:initial_magmoms:R:1:castep_labels:S:1 n_minim_iter=1 pbc="T T T"
P        1.49954888       4.51424564       3.54105470       0.00000000 NULL
P       -0.30893584       6.57644791       0.44835137       0.00000000 NULL
P       -1.19061303       3.97915307       6.63375803       0.00000000 NULL
P       -2.85192658       5.76005253       6.31262842       0.00000000 NULL
P        0.78790148       2.18505617       3.21992509       0.00000000 NULL
P        2.06402511       7.12473791       0.12722175       0.00000000 NULL
P        4.18725288       3.54812531       2.37948172       0.00000000 NULL
P        3.53418691       1.85220471       8.56488839       0.00000000 NULL
P        5.32943022       2.13459329       5.47218505       0.00000000 NULL
P        4.70975490       2.03715166       0.93127452       0.00000000 NULL
P        4.58147746       3.06019156       7.11668119       0.00000000 NULL
P        3.75963764       2.43758009       4.02397785       0.00000000 NULL
P        1.48522555       1.97900390       8.47495876       0.00000000 NULL
P        6.24409958       0.29674110       5.38225543       0.00000000 NULL
P        5.32154488       5.25917830       2.28955209       0.00000000 NULL
P        4.36732530       7.03469557       2.11532743       0.00000000 NULL
P        0.42469228       0.26486687       8.30073410       0.00000000 NULL
P        8.25885242       0.23536087       5.20803076       0.00000000 NULL
P        0.28001033       6.87072057       7.59268843       0.00000000 NULL
P       -1.73993372       4.34205908       4.49998510       0.00000000 NULL
P        1.45992339       3.85706697       1.40728176       0.00000000 NULL
P        6.71567318       1.88241372       2.07568021       0.00000000 NULL
P        3.71252531       4.87473672       8.26108688       0.00000000 NULL
P        2.62267152       0.77777287       5.16838354       0.00000000 NULL
P        2.74897522       2.23908384       1.88554947       0.00000000 NULL
P        5.38698891       1.26114045       8.07095614       0.00000000 NULL
P        4.91490588       4.03469901       4.97825280       0.00000000 NULL
27
Lattice="8.713721404553846 -3.161090655039811e-16 0.0 -4.356860702276921 7.54630409784385 0.0 0.0 0.0 9.289035520325061" Properties=species:S:1:pos:R:3:initial_magmoms:R:1:castep_labels:S:1 n_minim_iter=2 pbc="T T T"
P        1.50180812       4.52092591       3.54518193       0.00000000 NULL
P       -0.30928004       6.58644512       0.44883675       0.00000000 NULL
P       -1.19252807       3.98523716       6.64152710       0.00000000 NULL
P       -2.85612367       5.76866235       6.32009492       0.00000000 NULL
P        0.78911440       2.18849727       3.22374975       0.00000000 NULL
P        2.06700928       7.13544858       0.12740457       0.00000000 NULL
P        4.19374171       3.55381207       2.38221859       0.00000000 NULL
P        3.53915902       1.85498082       8.57490894       0.00000000 NULL
P        5.33768138       2.13751121       5.47856376       0.00000000 NULL
P        4.71720615       2.04017896       0.93254809       0.00000000 NULL
P        4.58827152       3.06513088       7.12523843       0.00000000 NULL
P        3.76510444       2.44099426       4.02889326       0.00000000 NULL
P        1.48729900       1.98207323       8.48491642       0.00000000 NULL
P        6.25354614       0.29700210       5.38857125       0.00000000 NULL
P        5.32973698       5.26722877       2.29222608       0.00000000 NULL
P        4.37387540       7.04536492       2.11782991       0.00000000 NULL
P        0.42531871       0.26520474       8.31052026       0.00000000 NULL
P        8.27138801       0.23573443       5.21417509       0.00000000 NULL
P        0.28044821       6.88093500       7.60164851       0.00000000 NULL
P       -1.74242791       4.34871187       4.50530334       0.00000000 NULL
P        1.46197971       3.86296133       1.40895817       0.00000000 NULL
P        6.72577593       1.88520614       2.07800987       0.00000000 NULL
P        3.71819703       4.88208974       8.27070022       0.00000000 NULL
P        2.62660915       0.77900822       5.17435505       0.00000000 NULL
P        2.75278613       2.24210205       1.88777342       0.00000000 NULL
P        5.39561101       1.26293170       8.08046377       0.00000000 NULL
P        4.92218497       4.04127035       4.98411859       0.00000000 NULL
27
Lattice="8.8798032456963 8.387180995334481e-16 0.0 -4.439901622848149 7.690135191380506 0.0 0.0 0.0 9.426437873225222" Properties=species:S:1:pos:R:3:initial_magmoms:R:1:castep_labels:S:1 n_minim_iter=3 pbc="T T T"
P        1.53034031       4.60514744       3.59699210       0.00000000 NULL
P       -0.31344320       6.71287506       0.45484614       0.00000000 NULL
P       -1.21689711       4.06224789       6.73913806       0.00000000 NULL
P       -2.90902157       5.87733131       6.41401074       0.00000000 NULL
P        0.80449419       2.23218296       3.27186478       0.00000000 NULL
P        2.10452739       7.27075611       0.12971882       0.00000000 NULL
P        4.27588791       3.62597785       2.41654866       0.00000000 NULL
P        3.60167036       1.89003863       8.70084057       0.00000000 NULL
P        5.44214660       2.17411871       5.55869462       0.00000000 NULL
P        4.81171139       2.07840804       0.94874950       0.00000000 NULL
P        4.67399339       3.12786027       7.23304142       0.00000000 NULL
P        3.83400010       2.48386688       4.09089546       0.00000000 NULL
P        1.51332299       2.02089674       8.61013041       0.00000000 NULL
P        6.37299384       0.30012778       5.46798445       0.00000000 NULL
P        5.43338805       5.36911067       2.32583849       0.00000000 NULL
P        4.45663137       7.18018969       2.14931908       0.00000000 NULL
P        0.43326089       0.26946114       8.43361100       0.00000000 NULL
P        8.42981261       0.24048437       5.29146504       0.00000000 NULL
P        0.28602309       7.00988803       7.71441333       0.00000000 NULL
P       -1.77385103       4.43289443       4.57226738       0.00000000 NULL
P        1.48782795       3.93748792       1.43012142       0.00000000 NULL
P        6.85339960       1.92043340       2.10717889       0.00000000 NULL
P        3.78995934       4.97500145       8.39147081       0.00000000 NULL
P        2.67634594       0.79470034       5.24932485       0.00000000 NULL
P        2.80060225       2.27993372       1.91577539       0.00000000 NULL
P        5.50502160       1.28542583       8.20006731       0.00000000 NULL
P        5.01408102       4.12477564       5.05792135       0.00000000 NULL
27
Lattice="8.896963451709397 9.690309458852906e-16 0.0 -4.448481725854697 7.704996365722022 0.0 0.0 0.0 9.431592107862004" Properties=species:S:1:pos:R:3:initial_magmoms:R:1:castep_labels:S:1 n_minim_iter=4 pbc="T T T"
P        1.53304462       4.61131614       3.59764375       0.00000000 NULL
P       -0.31155750       6.72699388       0.45377971       0.00000000 NULL
P       -1.22148711       4.07168272       6.74150778       0.00000000 NULL
P       -2.91268792       5.88671499       6.41765804       0.00000000 NULL
P        0.80678096       2.23917714       3.27379400       0.00000000 NULL
P        2.10590697       7.28410060       0.12992997       0.00000000 NULL
P        4.28594421       3.63681335       2.41664771       0.00000000 NULL
P        3.60441860       1.89332989       8.70437578       0.00000000 NULL
P        5.45508238       2.17485312       5.56051174       0.00000000 NULL
P        4.82540789       2.08206343       0.95166162       0.00000000 NULL
P        4.68113969       3.13789410       7.23938969       0.00000000 NULL
P        3.83889761       2.48503884       4.09552566       0.00000000 NULL
P        1.51387111       2.02519564       8.61462580       0.00000000 NULL
P        6.38615703       0.29845302       5.47076176       0.00000000 NULL
P        5.44541704       5.38134771       2.32689772       0.00000000 NULL
P        4.46499633       7.19377328       2.15072920       0.00000000 NULL
P        0.43447488       0.26991361       8.43845727       0.00000000 NULL
P        8.44597397       0.24130948       5.29459323       0.00000000 NULL
P        0.28709816       7.02170594       7.71982927       0.00000000 NULL
P       -1.77604307       4.44277770       4.57596523       0.00000000 NULL
P        1.48894492       3.94550910       1.43210120       0.00000000 NULL
P        6.86585847       1.92333491       2.10667573       0.00000000 NULL
P        3.79837733       4.98434039       8.39440381       0.00000000 NULL
P        2.68120939       0.79732106       5.25053977       0.00000000 NULL
P        2.80147717       2.28030790       1.91726188       0.00000000 NULL
P        5.52142030       1.28599645       8.20498995       0.00000000 NULL
P        5.02254771       4.13869202       5.06112592       0.00000000 NULL
27
Lattice="8.89776884161539 1.0332907310399328e-15 0.0 -4.448884420807694 7.705693853840564 0.0 0.0 0.0 9.410450480522183" Properties=species:S:1:pos:R:3:initial_magmoms:R:1:castep_labels:S:1 n_minim_iter=5 pbc="T T T"
P        1.53267873       4.60645075       3.58704990       0.00000000 NULL
P       -0.30675832       6.72980719       0.45023307       0.00000000 NULL
P       -1.22592041       4.07512976       6.72386673       0.00000000 NULL
P       -2.90915489       5.88337470       6.40349359       0.00000000 NULL
P        0.80830992       2.24460446       3.26667676       0.00000000 NULL
P        2.10084498       7.28340854       0.12985994       0.00000000 NULL
P        4.28937701       3.64396318       2.40888035       0.00000000 NULL
P        3.59731566       1.89272786       8.68251401       0.00000000 NULL
P        5.45996061       2.16900281       5.54569718       0.00000000 NULL
P        4.83404938       2.08161931       0.95391913       0.00000000 NULL
P        4.67800895       3.14559991       7.22755278       0.00000000 NULL
P        3.83459493       2.47847464       4.09073595       0.00000000 NULL
P        1.50945324       2.02603139       8.59492048       0.00000000 NULL
P        6.38844757       0.29420916       5.45810366       0.00000000 NULL
P        5.44875246       5.38545330       2.32128683       0.00000000 NULL
P        4.46499007       7.19372585       2.14636670       0.00000000 NULL
P        0.43532447       0.26993190       8.42000035       0.00000000 NULL
P        8.44633873       0.24203610       5.28318353       0.00000000 NULL
P        0.28819630       7.01917061       7.70489931       0.00000000 NULL
P       -1.77399379       4.44569387       4.56808249       0.00000000 NULL
P        1.48579749       3.94652323       1.43126566       0.00000000 NULL
P        6.86492542       1.92195482       2.09879775       0.00000000 NULL
P        3.80084443       4.98422239       8.37243140       0.00000000 NULL
P        2.68088342       0.79951664       5.23561457       0.00000000 NULL
P        2.79343219       2.27323924       1.91394950       0.00000000 NULL
P        5.53236982       1.28256362       8.18758315       0.00000000 NULL
P        5.02085126       4.14989100       5.05076633       0.00000000 NULL
27
Lattice="8.861151305047429 1.087535344046821e-15 0.0 -4.430575652523713 7.673982136948704 0.0 0.0 0.0 9.139673367134064" Properties=species:S:1:pos:R:3:initial_magmoms:R:1:castep_labels:S:1 n_minim_iter=6 pbc="T T T"
P        1.52175330       4.53763768       3.46225640       0.00000000 NULL
P       -0.26001050       6.72304031       0.41569861       0.00000000 NULL
P       -1.26174279       4.08728629       6.50881419       0.00000000 NULL
P       -2.86049538       5.82230977       6.22171254       0.00000000 NULL
P        0.81855518       2.28556558       3.17515475       0.00000000 NULL
P        2.04194021       7.24008893       0.12859696       0.00000000 NULL
P        4.29617046       3.68896323       2.31786763       0.00000000 NULL
P        3.51833021       1.87611114       8.41098321       0.00000000 NULL
P        5.47722630       2.10890777       5.36442542       0.00000000 NULL
P        4.89175504       2.06677486       0.96542442       0.00000000 NULL
P        4.62539426       3.20299670       7.05854000       0.00000000 NULL
P        3.77457767       2.40421058       4.01198221       0.00000000 NULL
P        1.45851601       2.02470755       8.34375755       0.00000000 NULL
P        6.37844513       0.25075814       5.29719976       0.00000000 NULL
P        5.45476582       5.39851645       2.25064197       0.00000000 NULL
P        4.44228958       7.15799946       2.08895820       0.00000000 NULL
P        0.44099715       0.26813589       8.18207378       0.00000000 NULL
P        8.40844024       0.24784679       5.13551599       0.00000000 NULL
P        0.29804189       6.95980506       7.50378273       0.00000000 NULL
P       -1.74581327       4.45219145       4.45722494       0.00000000 NULL
P        1.44777139       3.93596776       1.41066715       0.00000000 NULL
P        6.82150967       1.89892897       2.00844820       0.00000000 NULL
P        3.80587574       4.95813618       8.10156378       0.00000000 NULL
P        2.66434155       0.81691699       5.05500599       0.00000000 NULL
P        2.70698775       2.19719663       1.86960352       0.00000000 NULL
P        5.60482933       1.24572184       7.96271910       0.00000000 NULL
P        4.97990989       4.23106367       4.91616131       0.00000000 NULL
27
Lattice="9.548749150120203 2.1572085206722351e-16 0.0 -4.7743745750601 8.269459338369165 0.0 0.0 0.0 9.634690230445775" Properties=species:S:1:pos:R:3:initial_magmoms:R:1:castep_labels:S:1 n_minim_iter=7 pbc="T T T"
P        1.64058397       4.87615833       3.65712168       0.00000000 NULL
P       -0.26879439       7.25216757       0.44555827       0.00000000 NULL
P       -1.37178957       4.41059278       6.86868509       0.00000000 NULL
P       -3.06538589       6.26436940       6.56301253       0.00000000 NULL
P        0.88196449       2.48257259       3.35144912       0.00000000 NULL
P        2.18342141       7.79197670       0.13988571       0.00000000 NULL
P        4.62638772       3.98732332       2.43521130       0.00000000 NULL
P        3.78243201       2.01290763       8.85833812       0.00000000 NULL
P        5.91430401       2.26922839       5.64677471       0.00000000 NULL
P        5.30304776       2.22287339       1.02862300       0.00000000 NULL
P        4.97216045       3.48113738       7.45174982       0.00000000 NULL
P        4.04791552       2.56544857       4.24018641       0.00000000 NULL
P        1.54552692       2.19176995       8.79262026       0.00000000 NULL
P        6.87785724       0.24258060       5.58105685       0.00000000 NULL
P        5.89973957       5.83510879       2.36949344       0.00000000 NULL
P        4.78097898       7.71745779       2.20402661       0.00000000 NULL
P        0.47474517       0.28172036       8.62715343       0.00000000 NULL
P        9.06739958       0.27028120       5.41559002       0.00000000 NULL
P        0.33053872       7.48417862       7.90464067       0.00000000 NULL
P       -1.87238359       4.81362496       4.69307726       0.00000000 NULL
P        1.54184488       4.24111510       1.48151385       0.00000000 NULL
P        7.34657904       2.03826640       2.10334724       0.00000000 NULL
P        4.11026915       5.34319087       8.52647406       0.00000000 NULL
P        2.86627555       0.88800206       5.31491065       0.00000000 NULL
P        2.89706709       2.34293600       1.97703705       0.00000000 NULL
P        6.07117351       1.33746570       8.40016387       0.00000000 NULL
P        5.35488313       4.58905764       5.18860046       0.00000000 NULL
27
Lattice="8.969424195698462 -6.413045230631657e-16 0.0 -4.484712097849228 7.767749210793675 0.0 0.0 0.0 9.122383337062649" Properties=species:S:1:pos:R:3:initial_magmoms:R:1:castep_labels:S:1 n_minim_iter=8 pbc="T T T"
P        1.53987699       4.57548415       3.45999818       0.00000000 NULL
P       -0.24771190       6.81357972       0.41920373       0.00000000 NULL
P       -1.29216508       4.14643455       6.50079263       0.00000000 NULL
P       -2.87592621       5.87878596       6.21263378       0.00000000 NULL
P        0.83149722       2.33773107       3.17183934       0.00000000 NULL
P        2.04442900       7.31898139       0.13104489       0.00000000 NULL
P        4.34533209       3.74496351       2.30406877       0.00000000 NULL
P        3.55352462       1.89068622       8.38565767       0.00000000 NULL
P        5.55527959       2.13209948       5.34486322       0.00000000 NULL
P        4.98421729       2.08909470       0.97549108       0.00000000 NULL
P        4.66810647       3.27191144       7.05707997       0.00000000 NULL
P        3.80181253       2.40674307       4.01628553       0.00000000 NULL
P        1.45004351       2.05677447       8.32489199       0.00000000 NULL
P        6.46318350       0.22738727       5.28409755       0.00000000 NULL
P        5.54090929       5.48358746       2.24330310       0.00000000 NULL
P        4.49211520       7.24581469       2.08716463       0.00000000 NULL
P        0.44830700       0.26737853       8.16875352       0.00000000 NULL
P        8.51371410       0.25455598       5.12795907       0.00000000 NULL
P        0.31250807       7.03108560       7.48814938       0.00000000 NULL
P       -1.76064068       4.52284633       4.44735494       0.00000000 NULL
P        1.44813262       3.98156649       1.40656049       0.00000000 NULL
P        6.89828193       1.91410535       1.99004711       0.00000000 NULL
P        3.86261937       5.01703471       8.07163600       0.00000000 NULL
P        2.69323500       0.83660914       5.03084155       0.00000000 NULL
P        2.71887999       2.20162913       1.87356757       0.00000000 NULL
P        5.70331745       1.25380458       7.95515646       0.00000000 NULL
P        5.03193886       4.31231550       4.91436202       0.00000000 NULL
27
Lattice="8.960141948179844 -8.829770315448482e-16 0.0 -4.480070974089919 7.7597105486383375 0.0 0.0 0.0 9.110185844705171" Properties=species:S:1:pos:R:3:initial_magmoms:R:1:castep_labels:S:1 n_minim_iter=9 pbc="T T T"
P        1.53836016       4.56898746       3.45630156       0.00000000 NULL
P       -0.24596832       6.80747580       0.41957295       0.00000000 NULL
P       -1.29239184       4.14295784       6.49303018       0.00000000 NULL
P       -2.87063598       5.87130520       6.20464358       0.00000000 NULL
P        0.83068951       2.33801427       3.16791497       0.00000000 NULL
P        2.03994648       7.31010163       0.13118635       0.00000000 NULL
P        4.34045041       3.74240557       2.29980686       0.00000000 NULL
P        3.54889846       1.88773753       8.37326409       0.00000000 NULL
P        5.55086407       2.12956745       5.33653548       0.00000000 NULL
P        4.98239599       2.08675614       0.97545345       0.00000000 NULL
P        4.66176012       3.27150343       7.04891068       0.00000000 NULL
P        3.79605681       2.40145098       4.01218206       0.00000000 NULL
P        1.44582463       2.05537652       8.31343752       0.00000000 NULL
P        6.45722135       0.22443260       5.27670891       0.00000000 NULL
P        5.53716694       5.47990143       2.23998029       0.00000000 NULL
P        4.48701526       7.23825396       2.08467359       0.00000000 NULL
P        0.44812252       0.26674222       8.15813082       0.00000000 NULL
P        8.50507515       0.25471437       5.12140220       0.00000000 NULL
P        0.31375563       7.02241107       7.47768538       0.00000000 NULL
P       -1.75839322       4.52022536       4.44095676       0.00000000 NULL
P        1.44463759       3.97678467       1.40422815       0.00000000 NULL
P        6.89072968       1.91110041       1.98582641       0.00000000 NULL
P        3.85971560       5.01199675       8.05928364       0.00000000 NULL
P        2.68976764       0.83661339       5.02255503       0.00000000 NULL
P        2.71390299       2.19708799       1.87176554       0.00000000 NULL
P        5.70045644       1.25176494       7.94522277       0.00000000 NULL
P        5.02585349       4.31085762       4.90849416       0.00000000 NULL
27
Lattice="8.96437173407145 7.268160941617018e-17 0.0 -4.4821858670357235 7.763373650673038 0.0 0.0 0.0 9.103817111209688" Properties=species:S:1:pos:R:3:initial_magmoms:R:1:castep_labels:S:1 n_minim_iter=10 pbc="T T T"
P        1.53924489       4.56880692       3.45529068       0.00000000 NULL
P       -0.24413944       6.81199537       0.42068497       0.00000000 NULL
P       -1.29510545       4.14594501       6.48989638       0.00000000 NULL
P       -2.86878697       5.87227571       6.20079082       0.00000000 NULL
P        0.83103941       2.34279340       3.16618511       0.00000000 NULL
P        2.03774756       7.31167819       0.13157941       0.00000000 NULL
P        4.34193313       3.74602787       2.29659112       0.00000000 NULL
P        3.54924987       1.88721045       8.36580252       0.00000000 NULL
P        5.55537461       2.13013532       5.33119682       0.00000000 NULL
P        4.98930146       2.08747420       0.97647458       0.00000000 NULL
P        4.66191532       3.27712470       7.04568598       0.00000000 NULL
P        3.79534083       2.39877474       4.01108028       0.00000000 NULL
P        1.44273891       2.05747408       8.30716291       0.00000000 NULL
P        6.46117746       0.22071151       5.27255721       0.00000000 NULL
P        5.54264124       5.48518806       2.23795150       0.00000000 NULL
P        4.48843678       7.24171124       2.08362555       0.00000000 NULL
P        0.44864745       0.26624466       8.15283696       0.00000000 NULL
P        8.50947338       0.25541776       5.11823125       0.00000000 NULL
P        0.31610227       7.02373134       7.47172514       0.00000000 NULL
P       -1.75859504       4.52526058       4.43711943       0.00000000 NULL
P        1.44249277       3.97775538       1.40251373       0.00000000 NULL
P        6.89352198       1.91056785       1.98230851       0.00000000 NULL
P        3.86301045       5.01468123       8.05151992       0.00000000 NULL
P        2.69002518       0.83812457       5.01691421       0.00000000 NULL
P        2.71223819       2.19492601       1.87138784       0.00000000 NULL
P        5.70739096       1.25140417       7.94059925       0.00000000 NULL
P        5.02692846       4.31704348       4.90599355       0.00000000 NULL
27
Lattice="8.968663616452487 -9.815529105719597e-16 0.0 -4.484331808226241 7.7670905298450705 0.0 0.0 0.0 9.01608536587394" Properties=species:S:1:pos:R:3:initial_magmoms:R:1:castep_labels:S:1 n_minim_iter=11 pbc="T T T"
P        1.54122648       4.55535574       3.43156235       0.00000000 NULL
P       -0.23133522       6.82415394       0.42620056       0.00000000 NULL
P       -1.30989125       4.15467138       6.43692414       0.00000000 NULL
P       -2.84828576       5.86314106       6.14422584       0.00000000 NULL
P        0.83084559       2.36883217       3.13886405       0.00000000 NULL
P        2.01744018       7.30220783       0.13350226       0.00000000 NULL
P        4.34001540       3.76024221       2.26365293       0.00000000 NULL
P        3.54219064       1.87844248       8.27437651       0.00000000 NULL
P        5.57078939       2.12840583       5.26901472       0.00000000 NULL
P        5.02171028       2.08690720       0.97818660       0.00000000 NULL
P        4.65049383       3.30547508       6.98891018       0.00000000 NULL
P        3.78079132       2.37470826       3.98354839       0.00000000 NULL
P        1.41824691       2.06606856       8.22398781       0.00000000 NULL
P        6.47027230       0.19520357       5.21862602       0.00000000 NULL
P        5.56447621       5.50581839       2.21326423       0.00000000 NULL
P        4.48588045       7.24540464       2.06632101       0.00000000 NULL
P        0.45101892       0.26218411       8.07704459       0.00000000 NULL
P        8.51609606       0.25950179       5.07168280       0.00000000 NULL
P        0.33149747       7.01382134       7.39492465       0.00000000 NULL
P       -1.75556438       4.54726509       4.38956287       0.00000000 NULL
P        1.42406692       3.97309463       1.38420108       0.00000000 NULL
P        6.89424003       1.90169218       1.94921181       0.00000000 NULL
P        3.87462986       5.01974092       7.95993538       0.00000000 NULL
P        2.68412553       0.84565743       4.95457359       0.00000000 NULL
P        2.69402100       2.17472790       1.85941346       0.00000000 NULL
P        5.73828351       1.24572667       7.87013703       0.00000000 NULL
P        5.02069092       4.34663595       4.86477524       0.00000000 NULL
27
Lattice="9.230489573803967 -6.008430050657572e-17 0.0 -4.6152447869019815 7.9938384602816335 0.0 0.0 0.0 8.998784826461694" Properties=species:S:1:pos:R:3:initial_magmoms:R:1:castep_labels:S:1 n_minim_iter=12 pbc="T T T"
P        1.58984865       4.67541433       3.43926475       0.00000000 NULL
P       -0.22870712       7.03298061       0.43966981       0.00000000 NULL
P       -1.36114153       4.27928198       6.43885969       0.00000000 NULL
P       -2.90697516       6.02636662       6.13627206       0.00000000 NULL
P        0.84974579       2.46314081       3.13667712       0.00000000 NULL
P        2.05722938       7.49816949       0.13708218       0.00000000 NULL
P        4.46131000       3.88358384       2.24835267       0.00000000 NULL
P        3.63655232       1.92181587       8.24754256       0.00000000 NULL
P        5.74787205       2.18843875       5.24794762       0.00000000 NULL
P        5.19316822       2.14742641       0.98515842       0.00000000 NULL
P        4.77417964       3.42370240       6.98434830       0.00000000 NULL
P        3.87838650       2.42270965       3.98475336       0.00000000 NULL
P        1.43450188       2.13631146       8.20443489       0.00000000 NULL
P        6.66313864       0.17415934       5.20483995       0.00000000 NULL
P        5.74809384       5.68336766       2.20524501       0.00000000 NULL
P        4.61071534       7.45942090       2.06544548       0.00000000 NULL
P        0.46508391       0.26328616       8.06463537       0.00000000 NULL
P        8.76993512       0.27113140       5.06504043       0.00000000 NULL
P        0.36026129       7.20451746       7.37319353       0.00000000 NULL
P       -1.80418100       4.70357515       4.37359858       0.00000000 NULL
P        1.44391972       4.07958430       1.37400364       0.00000000 NULL
P        7.09945352       1.94592823       1.93363514       0.00000000 NULL
P        3.99553954       5.17534299       7.93282503       0.00000000 NULL
P        2.75074131       0.87256725       4.93323008       0.00000000 NULL
P        2.75510422       2.21647579       1.85989081       0.00000000 NULL
P        5.93341312       1.27775234       7.85908070       0.00000000 NULL
P        5.15721703       4.49961032       4.85948575       0.00000000 NULL
27
Lattice="9.02278185915293 -7.485726274453487e-16 0.0 -4.5113909295764625 7.813958302831828 0.0 0.0 0.0 8.827568009312984" Properties=species:S:1:pos:R:3:initial_magmoms:R:1:castep_labels:S:1 n_minim_iter=13 pbc="T T T"
P        1.55405602       4.56837059       3.37426443       0.00000000 NULL
P       -0.22196206       6.87562500       0.43174176       0.00000000 NULL
P       -1.33209396       4.18392102       6.31678710       0.00000000 NULL
P       -2.83922517       5.88886552       6.01920527       0.00000000 NULL
P        0.83109638       2.41068441       3.07668260       0.00000000 NULL
P        2.00812880       7.32836667       0.13415993       0.00000000 NULL
P        4.36066234       3.79669009       2.20447206       0.00000000 NULL
P        3.55442062       1.87809931       8.08951740       0.00000000 NULL
P        5.61908983       2.13916890       5.14699473       0.00000000 NULL
P        5.07805051       2.09969015       0.96724951       0.00000000 NULL
P        4.66537159       3.34787566       6.85229485       0.00000000 NULL
P        3.79075069       2.36639248       3.90977218       0.00000000 NULL
P        1.40074589       2.08768185       8.04814651       0.00000000 NULL
P        6.51442340       0.16924060       5.10562384       0.00000000 NULL
P        5.61900351       5.55703585       2.16310117       0.00000000 NULL
P        4.50734828       7.29039157       2.02650930       0.00000000 NULL
P        0.45544342       0.25828233       7.91155464       0.00000000 NULL
P        8.57138110       0.26528441       4.96903197       0.00000000 NULL
P        0.35415144       7.04221091       7.23329486       0.00000000 NULL
P       -1.76441833       4.59955699       4.29077219       0.00000000 NULL
P        1.41026690       3.98614871       1.34824952       0.00000000 NULL
P        6.93940673       1.90136261       1.89592309       0.00000000 NULL
P        3.90645018       5.05902121       7.78096843       0.00000000 NULL
P        2.68831589       0.85357449       4.83844576       0.00000000 NULL
P        2.69172217       2.16617570       1.82500247       0.00000000 NULL
P        5.80095759       1.24801193       7.71004781       0.00000000 NULL
P        5.04149303       4.39977068       4.76752514       0.00000000 NULL
27
Lattice="9.043176955819114 1.1810332863223592e-15 0.0 -4.521588477909556 7.831620974657379 0.0 0.0 0.0 8.844904452727558" Properties=species:S:1:pos:R:3:initial_magmoms:R:1:castep_labels:S:1 n_minim_iter=14 pbc="T T T"
P        1.55798508       4.57812238       3.38240110       0.00000000 NULL
P       -0.22217434       6.89181444       0.43409962       0.00000000 NULL
P       -1.33581074       4.19330513       6.33070259       0.00000000 NULL
P       -2.84386756       5.90194524       6.03126084       0.00000000 NULL
P        0.83228774       2.41778680       3.08295936       0.00000000 NULL
P        2.01157982       7.34350990       0.13465787       0.00000000 NULL
P        4.37018728       3.80628768       2.20806201       0.00000000 NULL
P        3.56174150       1.88154936       8.10466498       0.00000000 NULL
P        5.63283666       2.14378394       5.15636349       0.00000000 NULL
P        5.09068204       2.10455909       0.96966244       0.00000000 NULL
P        4.67523430       3.35638042       6.86626541       0.00000000 NULL
P        3.79884910       2.37068146       3.91796393       0.00000000 NULL
P        1.40239602       2.09296096       8.06363147       0.00000000 NULL
P        6.52942158       0.16803010       5.11532999       0.00000000 NULL
P        5.63294783       5.57062991       2.16702850       0.00000000 NULL
P        4.51718626       7.30711563       2.03074528       0.00000000 NULL
P        0.45643606       0.25844024       7.92734824       0.00000000 NULL
P        8.59114312       0.26606511       4.97904676       0.00000000 NULL
P        0.35655368       7.05725963       7.24660665       0.00000000 NULL
P       -1.76845448       4.61177570       4.29830517       0.00000000 NULL
P        1.41190081       3.99420661       1.35000369       0.00000000 NULL
P        6.95580202       1.90488293       1.89903696       0.00000000 NULL
P        3.91559894       5.07145978       7.79563992       0.00000000 NULL
P        2.69336448       0.85527826       4.84733844       0.00000000 NULL
P        2.69677667       2.16980042       1.82863605       0.00000000 NULL
P        5.81568633       1.25057690       7.72523902       0.00000000 NULL
P        5.05230243       4.41124366       4.77693754       0.00000000 NULL
27
Lattice="9.040617102459933 4.370496624174535e-16 0.0 -4.520308551229965 7.829404076618366 0.0 0.0 0.0 8.839875866291539" Properties=species:S:1:pos:R:3:initial_magmoms:R:1:castep_labels:S:1 n_minim_iter=15 pbc="T T T"
P        1.55790086       4.57618585       3.38174312       0.00000000 NULL
P       -0.22173507       6.89049287       0.43511783       0.00000000 NULL
P       -1.33616578       4.19212943       6.32836841       0.00000000 NULL
P       -2.84137992       5.89993945       6.02799759       0.00000000 NULL
P        0.83150107       2.41872715       3.08137231       0.00000000 NULL
P        2.00987886       7.34014155       0.13474702       0.00000000 NULL
P        4.36864387       3.80609375       2.20609294       0.00000000 NULL
P        3.56012129       1.88030970       8.09934352       0.00000000 NULL
P        5.63216049       2.14300063       5.15271823       0.00000000 NULL
P        5.09033637       2.10412002       0.96960460       0.00000000 NULL
P        4.67322753       3.35630060       6.86285518       0.00000000 NULL
P        3.79736176       2.36898346       3.91622989       0.00000000 NULL
P        1.40061016       2.09278500       8.05876154       0.00000000 NULL
P        6.52790706       0.16657148       5.11213625       0.00000000 NULL
P        5.63240845       5.57004760       2.16551096       0.00000000 NULL
P        4.51564689       7.30515362       2.02983648       0.00000000 NULL
P        0.45634505       0.25808811       7.92308706       0.00000000 NULL
P        8.58893372       0.26616235       4.97646177       0.00000000 NULL
P        0.35796191       7.05451864       7.24181470       0.00000000 NULL
P       -1.76806475       4.61214886       4.29518941       0.00000000 NULL
P        1.41010285       3.99214065       1.34856412       0.00000000 NULL
P        6.95441861       1.90362509       1.89737195       0.00000000 NULL
P        3.91482011       5.07089064       7.79062253       0.00000000 NULL
P        2.69168694       0.85488835       4.84399724       0.00000000 NULL
P        2.69504527       2.16809600       1.82768315       0.00000000 NULL
P        5.81546825       1.24992967       7.72093373       0.00000000 NULL
P        5.05041214       4.41137840       4.77430844       0.00000000 NULL
27
Lattice="9.04131077794131 1.7736865153971448e-15 0.0 -4.520655388970654 7.83000481720722 0.0 0.0 0.0 8.82640156210818" Properties=species:S:1:pos:R:3:initial_magmoms:R:1:castep_labels:S:1 n_minim_iter=16 pbc="T T T"
P        1.55909057       4.57472900       3.38023626       0.00000000 NULL
P       -0.22072142       6.89285236       0.43810241       0.00000000 NULL
P       -1.33836914       4.19242828       6.32237012       0.00000000 NULL
P       -2.83673354       5.89951085       6.01929838       0.00000000 NULL
P        0.82989589       2.42356608       3.07716453       0.00000000 NULL
P        2.00683765       7.33693270       0.13503067       0.00000000 NULL
P        4.36807304       3.80894902       2.20068744       0.00000000 NULL
P        3.55862765       1.87838770       8.08495515       0.00000000 NULL
P        5.63526549       2.14266809       5.14282129       0.00000000 NULL
P        5.09381167       2.10473406       0.96951208       0.00000000 NULL
P        4.67165178       3.35900327       6.85377979       0.00000000 NULL
P        3.79650272       2.36626748       3.91164593       0.00000000 NULL
P        1.39671421       2.09420272       8.04563903       0.00000000 NULL
P        6.52932092       0.16248862       5.10350518       0.00000000 NULL
P        5.63593105       5.57331347       2.16137132       0.00000000 NULL
P        4.51521098       7.30608907       2.02745369       0.00000000 NULL
P        0.45644655       0.25724288       7.91172140       0.00000000 NULL
P        8.59030864       0.26667287       4.96958754       0.00000000 NULL
P        0.36235234       7.05288369       7.22885540       0.00000000 NULL
P       -1.76849722       4.61736930       4.28672154       0.00000000 NULL
P        1.40614489       3.98975665       1.34458769       0.00000000 NULL
P        6.95672728       1.90169254       1.89282271       0.00000000 NULL
P        3.91603309       5.07385628       7.77709041       0.00000000 NULL
P        2.68920580       0.85445600       4.83495656       0.00000000 NULL
P        2.69249028       2.16509955       1.82512348       0.00000000 NULL
P        5.82003443       1.24921520       7.70939119       0.00000000 NULL
P        5.04944147       4.41569006       4.76725733       0.00000000 NULL
27
Lattice="9.060420000440004 3.384497050315501e-16 0.0 -4.53021000022 7.846553889337659 0.0 0.0 0.0 8.725425276720477" Properties=species:S:1:pos:R:3:initial_magmoms:R:1:castep_labels:S:1 n_minim_iter=17 pbc="T T T"
P        1.56743899       4.57664495       3.35714950       0.00000000 NULL
P       -0.21700029       6.91567340       0.44867441       0.00000000 NULL
P       -1.35043870       4.20078943       6.26562460       0.00000000 NULL
P       -2.82119347       5.90868058       5.95249989       0.00000000 NULL
P        0.82373925       2.44898838       3.04402480       0.00000000 NULL
P        1.99745422       7.33543882       0.13554971       0.00000000 NULL
P        4.37315156       3.82823778       2.16674246       0.00000000 NULL
P        3.55849306       1.87314145       7.98369265       0.00000000 NULL
P        5.65898539       2.14517466       5.07521756       0.00000000 NULL
P        5.11733986       2.11132637       0.96412310       0.00000000 NULL
P        4.67328780       3.37608313       6.78107328       0.00000000 NULL
P        3.80000235       2.35914439       3.87259819       0.00000000 NULL
P        1.38227511       2.10432474       7.94981480       0.00000000 NULL
P        6.54688377       0.14492299       5.04133971       0.00000000 NULL
P        5.66147113       5.59730616       2.13286462       0.00000000 NULL
P        4.52125271       7.32353053       2.00740574       0.00000000 NULL
P        0.45743017       0.25375443       7.82435592       0.00000000 NULL
P        8.61194713       0.26926893       4.91588083       0.00000000 NULL
P        0.38247041       7.05814946       7.13831709       0.00000000 NULL
P       -1.77356194       4.64870825       4.22984200       0.00000000 NULL
P        1.39109153       3.98625007       1.32136690       0.00000000 NULL
P        6.97988481       1.89658554       1.86426069       0.00000000 NULL
P        3.92798635       5.09646479       7.68121087       0.00000000 NULL
P        2.68275886       0.85350357       4.77273578       0.00000000 NULL
P        2.68636439       2.15598135       1.80504127       0.00000000 NULL
P        5.85010319       1.24846913       7.62199146       0.00000000 NULL
P        5.05416243       4.44210341       4.71351637       0.00000000 NULL
