5
Lattice="2.9465199999999983 -1.1767090715091589e-15 1.6186333228780006e-16 -0.4217444457554351 3.9755623702030434 1.858957844704766e-15 -0.4107365472082654 -0.5022424015256509 9.571395099383217" Properties=species:S:1:pos:R:3:initial_magmoms:R:1:castep_labels:S:1 n_minim_iter=1 pbc="T T T"
P        0.03797288       1.07647053       1.52281087       0.00000000 NULL
P        1.77531234       1.38988558       9.18883409       0.00000000 NULL
P        1.50393543       1.77241493       2.72362662       0.00000000 NULL
P        0.96693680       1.48569046       6.85817642       0.00000000 NULL
P        0.29238245       0.01679175       8.88216947       0.00000000 NULL
5
Lattice="2.9501412154162026 0.0001642405559054829 -0.00035326257755366035 -0.42204116151332866 3.9776978215489422 0.0009688625303384296 -0.4124168581484823 -0.500327185173032 9.575686442145727" Properties=species:S:1:pos:R:3:initial_magmoms:R:1:castep_labels:S:1 n_minim_iter=2 pbc="T T T"
P        0.03785236       1.07719330       1.52368217       0.00000000 NULL
P        1.77642019       1.39315756       9.19303844       0.00000000 NULL
P        1.50556449       1.77424960       2.72534772       0.00000000 NULL
P        0.96739479       1.48810274       6.86159197       0.00000000 NULL
P        0.29175466       0.01866213       8.88601906       0.00000000 NULL
5
Lattice="3.1210987130368437 0.008303907316125172 -0.017410280375496565 -0.43552846932180506 4.07705203239339 0.0466392645186592 -0.49304282866104004 -0.41008442052577143 9.773145823316245" Properties=species:S:1:pos:R:3:initial_magmoms:R:1:castep_labels:S:1 n_minim_iter=3 pbc="T T T"
P        0.03197983       1.11081993       1.56398760       0.00000000 NULL
P        1.82768621       1.54700243       9.38634757       0.00000000 NULL
P        1.58233560       1.86047872       2.80482169       0.00000000 NULL
P        0.98832315       1.60137149       7.01901396       0.00000000 NULL
P        0.26115938       0.10674503       9.06274086       0.00000000 NULL
5
Lattice="3.185002310844482 0.02839755265392404 -0.035177465214040145 -0.41756403913093537 4.1086539791079 0.07184512292676147 -0.5630902641785411 -0.36267914560246056 9.723271401284126" Properties=species:S:1:pos:R:3:initial_magmoms:R:1:castep_labels:S:1 n_minim_iter=4 pbc="T T T"
P        0.02746953       1.12238433       1.56491721       0.00000000 NULL
P        1.81855680       1.62980979       9.32996610       0.00000000 NULL
P        1.61127046       1.90537394       2.79460055       0.00000000 NULL
P        0.97836052       1.65720044       6.99320588       0.00000000 NULL
P        0.21830852       0.15896582       9.00850406       0.00000000 NULL
5
Lattice="3.2500085496223647 0.057519623107773296 -0.059891415565960164 -0.38757592186219164 4.1209498369754565 0.10201250009369943 -0.6573960078862172 -0.3047053990039322 9.576311833482716" Properties=species:S:1:pos:R:3:initial_magmoms:R:1:castep_labels:S:1 n_minim_iter=5 pbc="T T T"
P        0.02028212       1.12737416       1.55625983       0.00000000 NULL
P        1.79099030       1.72170230       9.17192084       0.00000000 NULL
P        1.64033237       1.95044329       2.75323848       0.00000000 NULL
P        0.95652504       1.71367641       6.90186363       0.00000000 NULL
P        0.15883712       0.22497774       8.85977268       0.00000000 NULL
5
Lattice="3.2816786288928204 0.07638104527620306 -0.080375057112912 -0.3666603739642051 4.083047823266004 0.12630682660130346 -0.7315642101368117 -0.2514561303281148 9.421185604844085" Properties=species:S:1:pos:R:3:initial_magmoms:R:1:castep_labels:S:1 n_minim_iter=6 pbc="T T T"
P        0.01066518       1.11434191       1.55107208       0.00000000 NULL
P        1.74985059       1.77640958       9.00221523       0.00000000 NULL
P        1.65016324       1.96342202       2.70752415       0.00000000 NULL
P        0.92654210       1.73630233       6.80605115       0.00000000 NULL
P        0.11286376       0.28293011       8.70189333       0.00000000 NULL
5
Lattice="3.3305749729130136 0.09685538552799179 -0.09302243996580428 -0.34603426073521687 4.032349007905403 0.1532002950524524 -0.7829535424983443 -0.18788624527498832 9.394842408660752" Properties=species:S:1:pos:R:3:initial_magmoms:R:1:castep_labels:S:1 n_minim_iter=7 pbc="T T T"
P        0.00499938       1.09586426       1.57461276       0.00000000 NULL
P        1.74383065       1.83887775       8.95969310       0.00000000 NULL
P        1.67706915       1.97561695       2.70578167       0.00000000 NULL
P        0.91802136       1.75880470       6.80819152       0.00000000 NULL
P        0.09677333       0.35113835       8.66104217       0.00000000 NULL
5
Lattice="3.3335798870121454 0.11904648750419701 -0.10388760998138903 -0.316523242945195 3.94173748190746 0.1919038099962924 -0.8224490746623485 -0.09049692704584475 9.302089535071147" Properties=species:S:1:pos:R:3:initial_magmoms:R:1:castep_labels:S:1 n_minim_iter=8 pbc="T T T"
P       -0.00098606       1.07150232       1.60011245       0.00000000 NULL
P        1.71867071       1.91757294       8.85803986       0.00000000 NULL
P        1.68114404       1.97779227       2.68855820       0.00000000 NULL
P        0.89365198       1.78325864       6.77347282       0.00000000 NULL
P        0.08853562       0.45099677       8.55286781       0.00000000 NULL
5
Lattice="3.3844081616523463 0.1329521547698168 -0.11075028761553987 -0.305036368599549 3.950855671914729 0.2147955413513011 -0.8541971859341925 -0.04109043390816911 9.443299612389852" Properties=species:S:1:pos:R:3:initial_magmoms:R:1:castep_labels:S:1 n_minim_iter=9 pbc="T T T"
P       -0.00291164       1.07591365       1.64416145       0.00000000 NULL
P        1.73635740       1.98821592       8.99175116       0.00000000 NULL
P        1.70707820       2.00757997       2.73641599       0.00000000 NULL
P        0.89369022       1.82302085       6.88644358       0.00000000 NULL
P        0.08489136       0.50482091       8.67121900       0.00000000 NULL
5
Lattice="3.3628427880469483 0.13472039157108637 -0.11482623352832064 -0.299563874868825 3.9323511805633706 0.22545370178484853 -0.864732626093613 -0.014775618939819582 9.393572532089507" Properties=species:S:1:pos:R:3:initial_magmoms:R:1:castep_labels:S:1 n_minim_iter=10 pbc="T T T"
P       -0.00710009       1.07374522       1.64632568       0.00000000 NULL
P        1.71291839       2.00796585       8.94310499       0.00000000 NULL
P        1.69234266       2.00677619       2.72263024       0.00000000 NULL
P        0.87400257       1.83061787       6.85763265       0.00000000 NULL
P        0.07653313       0.53077114       8.61908534       0.00000000 NULL
5
Lattice="3.3642524730497483 0.1389777019720896 -0.11954319128952365 -0.29402151431864676 3.9291558880396305 0.23696397942828992 -0.8809772391795979 0.011043797656636599 9.409349402950221" Properties=species:S:1:pos:R:3:initial_magmoms:R:1:castep_labels:S:1 n_minim_iter=11 pbc="T T T"
P       -0.01074498       1.07525051       1.65965382       0.00000000 NULL
P        1.70314013       2.03754820       8.95732750       0.00000000 NULL
P        1.69017927       2.01549007       2.72862348       0.00000000 NULL
P        0.86127018       1.84621297       6.87461070       0.00000000 NULL
P        0.06863092       0.55776869       8.62714380       0.00000000 NULL
5
Lattice="3.3613615390730627 0.16449477748004715 -0.15306782642648317 -0.2591790694905866 3.9151706566197704 0.3139996489940581 -0.9938242157831018 0.18270734905779903 9.507886178720508" Properties=species:S:1:pos:R:3:initial_magmoms:R:1:castep_labels:S:1 n_minim_iter=12 pbc="T T T"
P       -0.03934910       1.08938734       1.74785622       0.00000000 NULL
P        1.62540668       2.23451684       9.04609295       0.00000000 NULL
P        1.66603731       2.07435880       2.76454850       0.00000000 NULL
P        0.76503793       1.95223659       6.98089780       0.00000000 NULL
P        0.00862064       0.73661174       8.67414698       0.00000000 NULL
