12
Lattice="4.288698128663474 0.0 0.0 0.0 9.334311516119024 0.0 0.0 0.0 9.334311516119024" Properties=species:S:1:pos:R:3:initial_magmoms:R:1:castep_labels:S:1:forces:R:3 n_minim_iter=1 energy=-59.357522292071 stress="-0.0016216645848466968 -0.0 0.0 -0.0 -0.002313100594528432 0.0 0.0 0.0 -0.002313100594528432" free_energy=-59.357522292071 pbc="T T T"
P        3.72801709       2.64671051       0.21260885       0.00000000 NULL       0.54460200      -0.30940400       0.24699800
P        1.58366802       6.68760101       9.12170266       0.00000000 NULL       0.54460300       0.30940400      -0.24699800
P        2.65584256       0.21260885       6.68760101       0.00000000 NULL       0.54460200       0.24699800       0.30940400
P        0.51149349       9.12170266       2.64671051       0.00000000 NULL       0.54460300      -0.24699800      -0.30940400
P        3.95361834       9.03237027       4.86077385       0.00000000 NULL      -0.25183900      -0.78531800       0.06055500
P        1.80926928       0.30194124       4.47353767       0.00000000 NULL      -0.25183900       0.78531800      -0.06055500
P        2.88144381       4.86077385       0.30194124       0.00000000 NULL      -0.25183900       0.06055500       0.78531800
P        0.73709474       4.47353767       9.03237027       0.00000000 NULL      -0.25183800      -0.06055500      -0.78531800
P        3.29367917       8.02488924       0.56403450       0.00000000 NULL      -0.29276400       0.69358500       0.19968600
P        1.14933010       1.30942228       8.77027701       0.00000000 NULL      -0.29276400      -0.69358600      -0.19968600
P        2.22150464       0.56403450       1.30942228       0.00000000 NULL      -0.29276400       0.19968600      -0.69358600
P        0.07715557       8.77027701       8.02488924       0.00000000 NULL      -0.29276400      -0.19968600       0.69358500
12
Lattice="4.326617360420212 0.0 0.0 0.0 9.452252921166899 0.0 0.0 0.0 9.452252921166899" Properties=species:S:1:pos:R:3:initial_magmoms:R:1:castep_labels:S:1:forces:R:3 n_minim_iter=2 energy=-59.421956731467 stress="0.009869258445304181 -0.0 0.0 -0.0 0.006142326913182894 0.0 0.0 0.0 0.006142326913182894" free_energy=-59.421956731467 pbc="T T T"
P        3.76896025       2.67560093       0.21892865       0.00000000 NULL       0.64107300      -0.14735000       0.14035500
P        1.60565157       6.77665199       9.23332427       0.00000000 NULL       0.64107400       0.14735000      -0.14035500
P        2.68730591       0.21892865       6.77665199       0.00000000 NULL       0.64107300       0.14035500       0.14735000
P        0.52399723       9.23332427       2.67560093       0.00000000 NULL       0.64107400      -0.14035500      -0.14735000
P        3.98488415       9.13494427       4.92308175       0.00000000 NULL      -0.30557200      -0.62861700       0.11278300
P        1.82157547       0.31730865       4.52917117       0.00000000 NULL      -0.30557100       0.62861700      -0.11278300
P        2.90322981       4.92308175       0.31730865       0.00000000 NULL      -0.30557200       0.11278300       0.62861700
P        0.73992113       4.52917117       9.13494427       0.00000000 NULL      -0.30557100      -0.11278300      -0.62861700
P        3.31851025       8.13648864       0.57409867       0.00000000 NULL      -0.33550300       0.70258900       0.07395400
P        1.15520157       1.31576428       8.87815425       0.00000000 NULL      -0.33550200      -0.70258900      -0.07395400
P        2.23685591       0.57409867       1.31576428       0.00000000 NULL      -0.33550200       0.07395400      -0.70258900
P        0.07354723       8.87815425       8.13648864       0.00000000 NULL      -0.33550100      -0.07395400       0.70258900
12
Lattice="4.04273806250482 0.0 0.0 0.0 9.781117316221124 0.0 0.0 0.0 9.781117316221124" Properties=species:S:1:pos:R:3:initial_magmoms:R:1:castep_labels:S:1:forces:R:3 n_minim_iter=3 energy=-60.453167561621 stress="0.00619575334923382 -0.0 0.0 -0.0 0.0039016494531753988 0.0 0.0 0.0 0.0039016494531753988" free_energy=-60.453167561621 pbc="T T T"
P        3.62824927       2.71114751       0.27351253       0.00000000 NULL       0.60048400       0.14938700      -0.03051300
P        1.60688023       7.06996980       9.50760479       0.00000000 NULL       0.60048500      -0.14938700       0.03051300
P        2.61756475       0.27351253       7.06996980       0.00000000 NULL       0.60048500      -0.03051300      -0.14938700
P        0.59619572       9.50760479       2.71114751       0.00000000 NULL       0.60048500       0.03051300       0.14938700
P        3.67377122       9.29517556       5.10943272       0.00000000 NULL      -0.49287300      -0.67975000       0.63063800
P        1.65240219       0.48594176       4.67168460       0.00000000 NULL      -0.49287200       0.67975000      -0.63063800
P        2.66308670       5.10943272       0.48594176       0.00000000 NULL      -0.49287300       0.63063800       0.67975000
P        0.64171767       4.67168460       9.29517556       0.00000000 NULL      -0.49287200      -0.63063800      -0.67975000
P        3.04385152       8.56543947       0.63025249       0.00000000 NULL      -0.10761200      -0.61838900       0.34528400
P        1.02248248       1.21567785       9.15086483       0.00000000 NULL      -0.10761200       0.61838900      -0.34528400
P        2.03316700       0.63025249       1.21567785       0.00000000 NULL      -0.10761200       0.34528300       0.61838900
P        0.01179797       9.15086483       8.56543947       0.00000000 NULL      -0.10761200      -0.34528300      -0.61838900
12
Lattice="3.8421587491993465 0.0 0.0 0.0 10.033345673986924 0.0 0.0 0.0 10.033345673986924" Properties=species:S:1:pos:R:3:initial_magmoms:R:1:castep_labels:S:1:forces:R:3 n_minim_iter=4 energy=-61.089032107017 stress="0.011858419117053619 0.0 -0.0 0.0 0.009098574073810527 0.0 -0.0 0.0 0.009098574073810527" free_energy=-61.089032107017 pbc="T T T"
P        3.53609014       2.75584093       0.30773319       0.00000000 NULL       0.44506000       0.22492100      -0.16557700
P        1.61501077       7.27750474       9.72561248       0.00000000 NULL       0.44505900      -0.22492100       0.16557600
P        2.57555045       0.30773319       7.27750474       0.00000000 NULL       0.44505900      -0.16557600      -0.22492100
P        0.65447108       9.72561248       2.75584093       0.00000000 NULL       0.44505900       0.16557600       0.22492100
P        3.43756779       9.38666958       5.29972969       0.00000000 NULL      -0.55617900       0.38109400       0.63028400
P        1.51648841       0.64667610       4.73361599       0.00000000 NULL      -0.55617900      -0.38109400      -0.63028400
P        2.47702810       5.29972969       0.64667610       0.00000000 NULL      -0.55617900       0.63028400      -0.38109400
P        0.55594873       4.73361599       9.38666958       0.00000000 NULL      -0.55617900      -0.63028400       0.38109400
P        2.85890653       8.81360446       0.69983895       0.00000000 NULL       0.11112000      -0.42392200       0.14038300
P        0.93782715       1.21974121       9.33350672       0.00000000 NULL       0.11111900       0.42392200      -0.14038200
P        1.89836684       0.69983895       1.21974121       0.00000000 NULL       0.11112000       0.14038300       0.42392300
P       -0.02271253       9.33350672       8.81360446       0.00000000 NULL       0.11112100      -0.14038200      -0.42392200
12
Lattice="3.840694106115488 0.0 0.0 0.0 10.054865842726107 0.0 0.0 0.0 10.054865842726107" Properties=species:S:1:pos:R:3:initial_magmoms:R:1:castep_labels:S:1:forces:R:3 n_minim_iter=5 energy=-61.45527078729 stress="0.0100928820636859 -0.0 0.0 -0.0 0.00554304744067489 -0.0 0.0 -0.0 0.005543073194261409" free_energy=-61.45527078729 pbc="T T T"
P        3.61214446       2.73667214       0.32141171       0.00000000 NULL       0.32446900       0.09745900      -0.01967600
P        1.69179741       7.31819370       9.73345413       0.00000000 NULL       0.32446900      -0.09745900       0.01967600
P        2.65197093       0.32141171       7.31819370       0.00000000 NULL       0.32446900      -0.01967600      -0.09745900
P        0.73162388       9.73345413       2.73667214       0.00000000 NULL       0.32446900       0.01967600       0.09745900
P        3.36040073       9.41907585       5.40183243       0.00000000 NULL      -0.42116700       0.43256000       0.11094600
P        1.44005367       0.63578999       4.65303341       0.00000000 NULL      -0.42116600      -0.43256000      -0.11094600
P        2.40022720       5.40183243       0.63578999       0.00000000 NULL      -0.42116700       0.11094600      -0.43256000
P        0.47988015       4.65303341       9.41907585       0.00000000 NULL      -0.42116600      -0.11094600       0.43256000
P        2.85627103       8.86814186       0.75099674       0.00000000 NULL       0.09669700      -0.50841000       0.08308700
P        0.93592398       1.18672398       9.30386910       0.00000000 NULL       0.09669800       0.50841000      -0.08308800
P        1.89609750       0.75099674       1.18672398       0.00000000 NULL       0.09669700       0.08308700       0.50841000
P       -0.02424955       9.30386910       8.86814186       0.00000000 NULL       0.09669700      -0.08308800      -0.50841000
12
Lattice="3.7079053932370707 0.0 0.0 0.0 10.298591563466164 0.0 0.0 0.0 10.298591563466164" Properties=species:S:1:pos:R:3:initial_magmoms:R:1:castep_labels:S:1:forces:R:3 n_minim_iter=6 energy=-61.523635291729 stress="0.008339281376919083 -0.0 0.0 -0.0 0.01256270271788533 -0.0 0.0 -0.0 0.012562728146089826" free_energy=-61.523635291729 pbc="T T T"
P        3.51801978       2.78821152       0.34155819       0.00000000 NULL       0.27396100       0.11589100      -0.03049600
P        1.66406709       7.51038004       9.95703337       0.00000000 NULL       0.27396200      -0.11589000       0.03049700
P        2.59104344       0.34155819       7.51038004       0.00000000 NULL       0.27396200      -0.03049700      -0.11589000
P        0.73709074       9.95703337       2.78821152       0.00000000 NULL       0.27396200       0.03049700       0.11589000
P        3.21353218       9.66180547       5.54713935       0.00000000 NULL      -0.37636100       0.42549200       0.17142500
P        1.35957948       0.63678609       4.75145222       0.00000000 NULL      -0.37636000      -0.42549200      -0.17142500
P        2.28655583       5.54713935       0.63678609       0.00000000 NULL      -0.37636100       0.17142500      -0.42549200
P        0.43260313       4.75145222       9.66180547       0.00000000 NULL      -0.37636000      -0.17142500       0.42549200
P        2.75744131       9.08330417       0.78893997       0.00000000 NULL       0.10239800      -0.23703800      -0.08545000
P        0.90348862       1.21528740       9.50965159       0.00000000 NULL       0.10240000       0.23703800       0.08545000
P        1.83046497       0.78893997       1.21528740       0.00000000 NULL       0.10239900      -0.08545000       0.23703800
P       -0.02348773       9.50965159       9.08330417       0.00000000 NULL       0.10239700       0.08545000      -0.23703800
12
Lattice="3.7761405297981785 0.0 0.0 0.0 10.120589623289362 0.0 0.0 0.0 10.120589623289362" Properties=species:S:1:pos:R:3:initial_magmoms:R:1:castep_labels:S:1:forces:R:3 n_minim_iter=7 energy=-61.743492122144 stress="0.009020149156037337 0.0 -0.0 0.0 0.007977763698874783 0.0 -0.0 0.0 0.007977763698874783" free_energy=-61.743492122144 pbc="T T T"
P        3.66817284       2.68708786       0.39100930       0.00000000 NULL       0.00055600       0.44389300       0.27368400
P        1.78010257       7.43350176       9.72958032       0.00000000 NULL       0.00055400      -0.44389400      -0.27368600
P        2.72413770       0.39100930       7.43350176       0.00000000 NULL       0.00055500       0.27368500      -0.44389400
P        0.83606744       9.72958032       2.68708786       0.00000000 NULL       0.00055400      -0.27368600       0.44389400
P        3.18720344       9.52914805       5.43973861       0.00000000 NULL      -0.27459000       0.04023400       0.32093200
P        1.29913318       0.59144158       4.68085101       0.00000000 NULL      -0.27459100      -0.04023400      -0.32093200
P        2.24316831       5.43973861       0.59144158       0.00000000 NULL      -0.27459000       0.32093200      -0.04023400
P        0.35509804       4.68085101       9.52914805       0.00000000 NULL      -0.27459200      -0.32093200       0.04023400
P        2.80823909       8.90115686       0.81874822       0.00000000 NULL       0.27403600       0.28291100       0.09834200
P        0.92016883       1.21943277       9.30184140       0.00000000 NULL       0.27403400      -0.28291000      -0.09834100
P        1.86420396       0.81874822       1.21943277       0.00000000 NULL       0.27403600       0.09834200      -0.28291100
P       -0.02386631       9.30184140       8.90115686       0.00000000 NULL       0.27403700      -0.09834200       0.28291100
12
Lattice="3.8277947398753867 0.0 0.0 0.0 9.882517718863815 0.0 0.0 0.0 9.882517718863815" Properties=species:S:1:pos:R:3:initial_magmoms:R:1:castep_labels:S:1:forces:R:3 n_minim_iter=8 energy=-62.101273891267 stress="0.0162082871767389 -0.0 -0.0 -0.0 0.011490125419740151 0.0 -0.0 0.0 0.011490125419740151" free_energy=-62.101273891267 pbc="T T T"
P        3.82235544       2.61572715       0.55371028       0.00000000 NULL       0.16068700      -0.11658600       0.03009900
P        1.90845807       7.26679057       9.32880744       0.00000000 NULL       0.16068600       0.11658600      -0.03009900
P        2.86540676       0.55371028       7.26679057       0.00000000 NULL       0.16068700       0.03009900       0.11658600
P        0.95150939       9.32880744       2.61572715       0.00000000 NULL       0.16068600      -0.03010000      -0.11658600
P        3.07815589       9.34060771       5.30603077       0.00000000 NULL      -0.16519500      -0.33499300       0.52365700
P        1.16425852       0.54191001       4.57648694       0.00000000 NULL      -0.16519600       0.33499300      -0.52365700
P        2.12120721       5.30603077       0.54191001       0.00000000 NULL      -0.16519500       0.52365700       0.33499300
P        0.20730984       4.57648694       9.34060771       0.00000000 NULL      -0.16519700      -0.52365700      -0.33499300
P        2.89529329       8.68835711       0.90066350       0.00000000 NULL       0.00451000       0.11382600      -0.23066600
P        0.98139592       1.19416061       8.98185422       0.00000000 NULL       0.00450900      -0.11382600       0.23066600
P        1.93834460       0.90066350       1.19416061       0.00000000 NULL       0.00451000      -0.23066500      -0.11382700
P        0.02444723       8.98185422       8.68835711       0.00000000 NULL       0.00450900       0.23066600       0.11382600
12
Lattice="3.7926702691270093 0.0 0.0 0.0 9.745507156534732 0.0 0.0 0.0 9.745507156534732" Properties=species:S:1:pos:R:3:initial_magmoms:R:1:castep_labels:S:1:forces:R:3 n_minim_iter=9 energy=-62.351740558322 stress="0.01746760656896612 -0.0 0.0 -0.0 0.00951479544910875 0.0 0.0 0.0 0.00951479544910875" free_energy=-62.351740558322 pbc="T T T"
P        3.84726066       2.51292317       0.68191325       0.00000000 NULL       0.08064700       0.16327000      -0.10735300
P        1.95092552       7.23258399       9.06359390       0.00000000 NULL       0.08064700      -0.16327100       0.10735300
P        2.89909309       0.68191325       7.23258399       0.00000000 NULL       0.08064700      -0.10735300      -0.16327100
P        1.00275795       9.06359390       2.51292317       0.00000000 NULL       0.08064700       0.10735300       0.16327100
P        2.94362990       9.21516192       5.26098181       0.00000000 NULL      -0.10569900      -0.24643300       0.52214300
P        1.04729477       0.53034524       4.48452534       0.00000000 NULL      -0.10569700       0.24643300      -0.52214300
P        1.99546234       5.26098181       0.53034524       0.00000000 NULL      -0.10569900       0.52214300       0.24643300
P        0.09912720       4.48452534       9.21516192       0.00000000 NULL      -0.10569700      -0.52214300      -0.24643300
P        2.91502590       8.56060106       0.92884000       0.00000000 NULL       0.02505100      -0.02322700      -0.28530300
P        1.01869077       1.18490609       8.81666716       0.00000000 NULL       0.02505100       0.02322800       0.28530400
P        1.96685833       0.92884000       1.18490609       0.00000000 NULL       0.02505100      -0.28530400       0.02322700
P        0.07052320       8.81666716       8.56060106       0.00000000 NULL       0.02505200       0.28530300      -0.02322700
12
Lattice="3.65424314239871 0.0 0.0 0.0 9.780709701779537 0.0 0.0 0.0 9.780709701779537" Properties=species:S:1:pos:R:3:initial_magmoms:R:1:castep_labels:S:1:forces:R:3 n_minim_iter=10 energy=-62.694072109529 stress="0.01465715711608918 -0.0 -0.0 -0.0 0.011122876355834088 0.0 -0.0 0.0 0.011122876355834088" free_energy=-62.694072109529 pbc="T T T"
P        3.75569299       2.52098668       0.82516903       0.00000000 NULL      -0.12481000       0.16017700      -0.22529800
P        1.92857142       7.25972302       8.95554067       0.00000000 NULL      -0.12481000      -0.16017700       0.22529800
P        2.84213220       0.82516903       7.25972302       0.00000000 NULL      -0.12481000      -0.22529800      -0.16017700
P        1.01501063       8.95554067       2.52098668       0.00000000 NULL      -0.12481000       0.22529800       0.16017700
P        2.71229868       9.22877014       5.34712111       0.00000000 NULL      -0.02004300       0.25502400       0.27719300
P        0.88517711       0.55193956       4.43358859       0.00000000 NULL      -0.02004200      -0.25502400      -0.27719300
P        1.79873790       5.34712111       0.55193956       0.00000000 NULL      -0.02004200       0.27719300      -0.25502400
P       -0.02838367       4.43358859       9.22877014       0.00000000 NULL      -0.02004300      -0.27719300       0.25502400
P        2.88367198       8.56462183       0.82480370       0.00000000 NULL       0.14485200      -0.29260300       0.01507100
P        1.05655041       1.21608787       8.95590600       0.00000000 NULL       0.14485200       0.29260300      -0.01507100
P        1.97011119       0.82480370       1.21608787       0.00000000 NULL       0.14485200       0.01507100       0.29260300
P        0.14298962       8.95590600       8.56462183       0.00000000 NULL       0.14485300      -0.01507100      -0.29260300
12
Lattice="3.534793477727296 0.0 0.0 0.0 9.703505727230809 0.0 0.0 0.0 9.703505727230809" Properties=species:S:1:pos:R:3:initial_magmoms:R:1:castep_labels:S:1:forces:R:3 n_minim_iter=11 energy=-62.849953485978 stress="0.005530795759195709 -0.0 -0.0 -0.0 0.005920425103914881 0.0 -0.0 0.0 0.005920425103914881" free_energy=-62.849953485978 pbc="T T T"
P        3.60883814       2.47667785       0.87595659       0.00000000 NULL       0.15018100       0.37937900      -0.08947700
P        1.84144140       7.22682787       8.82754913       0.00000000 NULL       0.15017900      -0.37938000       0.08947700
P        2.72513977       0.87595659       7.22682787       0.00000000 NULL       0.15017900      -0.08947700      -0.37937900
P        0.95774303       8.82754913       2.47667785       0.00000000 NULL       0.15018000       0.08947700       0.37938000
P        2.58578861       9.14705935       5.33826065       0.00000000 NULL      -0.06312200       0.24718100       0.05005100
P        0.81839187       0.55644638       4.36524508       0.00000000 NULL      -0.06312000      -0.24718100      -0.05005100
P        1.70209024       5.33826065       0.55644638       0.00000000 NULL      -0.06312000       0.05005100      -0.24718100
P       -0.06530650       4.36524508       9.14705935       0.00000000 NULL      -0.06312300      -0.05005100       0.24718100
P        2.85134988       8.46857801       0.82040487       0.00000000 NULL      -0.08706000      -0.09408100      -0.13358900
P        1.08395314       1.23492772       8.88310085       0.00000000 NULL      -0.08705800       0.09408100       0.13358900
P        1.96765151       0.82040487       1.23492772       0.00000000 NULL      -0.08705900      -0.13359000       0.09408100
P        0.20025477       8.88310085       8.46857801       0.00000000 NULL      -0.08705700       0.13358900      -0.09408100
12
Lattice="3.4835211825606454 0.0 0.0 0.0 9.635914703730158 0.0 0.0 0.0 9.635914703730158" Properties=species:S:1:pos:R:3:initial_magmoms:R:1:castep_labels:S:1:forces:R:3 n_minim_iter=12 energy=-62.948686900938 stress="0.001702128773539016 -0.0 -0.0 -0.0 0.004257470656938285 0.0 -0.0 0.0 0.004257470656938285" free_energy=-62.948686900938 pbc="T T T"
P        3.58252258       2.49595275       0.93612412       0.00000000 NULL       0.03788800       0.13404200      -0.09668700
P        1.84076199       7.13996195       8.69979058       0.00000000 NULL       0.03788700      -0.13404200       0.09668700
P        2.71164229       0.93612412       7.13996195       0.00000000 NULL       0.03788700      -0.09668700      -0.13404200
P        0.96988169       8.69979058       2.49595275       0.00000000 NULL       0.03788800       0.09668700       0.13404200
P        2.51865158       9.09293960       5.32636834       0.00000000 NULL      -0.04825500       0.16153000      -0.03828900
P        0.77689099       0.54297510       4.30954637       0.00000000 NULL      -0.04825400      -0.16153000       0.03828900
P        1.64777129       5.32636834       0.54297510       0.00000000 NULL      -0.04825400      -0.03828900      -0.16153000
P       -0.09398930       4.30954637       9.09293960       0.00000000 NULL      -0.04825500       0.03828900       0.16153000
P        2.81358988       8.37915385       0.79114127       0.00000000 NULL       0.01036700      -0.07283200      -0.07905800
P        1.07182929       1.25676086       8.84477343       0.00000000 NULL       0.01036800       0.07283200       0.07905900
P        1.94270958       0.79114127       1.25676086       0.00000000 NULL       0.01036700      -0.07905900       0.07283200
P        0.20094899       8.84477343       8.37915385       0.00000000 NULL       0.01036800       0.07905900      -0.07283200
12
Lattice="3.480919691818215 0.0 0.0 0.0 9.559035354998098 0.0 0.0 0.0 9.559035354998098" Properties=species:S:1:pos:R:3:initial_magmoms:R:1:castep_labels:S:1:forces:R:3 n_minim_iter=13 energy=-62.981127518719 stress="-0.0020293043572034517 0.0 0.0 0.0 0.0012097667146040284 -0.0 0.0 -0.0 0.0012097667146040284" free_energy=-62.981127518719 pbc="T T T"
P        3.58745554       2.50010317       0.93341540       0.00000000 NULL      -0.00933700       0.05920900      -0.05308600
P        1.84699570       7.05893219       8.62561996       0.00000000 NULL      -0.00933600      -0.05920900       0.05308600
P        2.71722562       0.93341540       7.05893219       0.00000000 NULL      -0.00933600      -0.05308600      -0.05920900
P        0.97676577       8.62561996       2.50010317       0.00000000 NULL      -0.00933700       0.05308600       0.05920900
P        2.48592489       9.01259660       5.27374687       0.00000000 NULL      -0.03042000       0.09459100       0.10647300
P        0.74546504       0.54643875       4.28528848       0.00000000 NULL      -0.03042200      -0.09459100      -0.10647200
P        1.61569497       5.27374687       0.54643875       0.00000000 NULL      -0.03042200       0.10647200      -0.09459100
P       -0.12476488       4.28528848       9.01259660       0.00000000 NULL      -0.03042000      -0.10647300       0.09459100
P        2.83472622       8.29810708       0.76480110       0.00000000 NULL       0.03975800      -0.09131300      -0.00777200
P        1.09426638       1.26092828       8.79423425       0.00000000 NULL       0.03975600       0.09131200       0.00777200
P        1.96449630       0.76480110       1.26092828       0.00000000 NULL       0.03975700      -0.00777200       0.09131200
P        0.22403645       8.79423425       8.29810708       0.00000000 NULL       0.03975600       0.00777200      -0.09131200
12
Lattice="3.505165310310398 0.0 0.0 0.0 9.479199919794393 0.0 0.0 0.0 9.479199919794393" Properties=species:S:1:pos:R:3:initial_magmoms:R:1:castep_labels:S:1:forces:R:3 n_minim_iter=14 energy=-63.005754604655 stress="-0.003428018974568721 -0.0 -0.0 -0.0 -0.0014104128898219078 0.0 -0.0 0.0 -0.0014104128898219078" free_energy=-63.005754604655 pbc="T T T"
P        3.61807751       2.49982174       0.93851176       0.00000000 NULL      -0.07287600      -0.00406100       0.03470200
P        1.86549485       6.97937818       8.54068816       0.00000000 NULL      -0.07287700       0.00406100      -0.03470300
P        2.74178618       0.93851176       6.97937818       0.00000000 NULL      -0.07287700       0.03470300       0.00406100
P        0.98920353       8.54068816       2.49982174       0.00000000 NULL      -0.07287700      -0.03470200      -0.00406100
P        2.47575707       8.94121306       5.24497735       0.00000000 NULL      -0.03482600       0.06481800      -0.02619200
P        0.72317442       0.53798686       4.23422257       0.00000000 NULL      -0.03482400      -0.06481800       0.02619200
P        1.59946574       5.24497735       0.53798686       0.00000000 NULL      -0.03482400      -0.02619200      -0.06481800
P       -0.15311691       4.23422257       8.94121306       0.00000000 NULL      -0.03482600       0.02619200       0.06481800
P        2.87631914       8.21155158       0.73360448       0.00000000 NULL       0.10770100      -0.05973800       0.02352600
P        1.12373648       1.26764834       8.74559544       0.00000000 NULL       0.10770300       0.05973800      -0.02352600
P        2.00002781       0.73360448       1.26764834       0.00000000 NULL       0.10770200       0.02352600       0.05973800
P        0.24744516       8.74559544       8.21155158       0.00000000 NULL       0.10770300      -0.02352600      -0.05973800
12
Lattice="3.604490479149549 0.0 0.0 0.0 9.202978692740388 0.0 0.0 0.0 9.202978692740388" Properties=species:S:1:pos:R:3:initial_magmoms:R:1:castep_labels:S:1:forces:R:3 n_minim_iter=15 energy=-63.100053487229 stress="-0.005190813298072569 -0.0 -0.0 -0.0 -0.0023977203424855546 0.0 -0.0 0.0 -0.0023977203424855546" free_energy=-63.100053487229 pbc="T T T"
P        3.73190739       2.48073827       1.00684226       0.00000000 NULL      -0.15290300      -0.08779200       0.11763400
P        1.92966216       6.72224042       8.19613644       0.00000000 NULL      -0.15290400       0.08779200      -0.11763400
P        2.83078477       1.00684226       6.72224042       0.00000000 NULL      -0.15290400       0.11763400       0.08779200
P        1.02853954       8.19613644       2.48073827       0.00000000 NULL      -0.15290300      -0.11763400      -0.08779200
P        2.37872015       8.69561640       5.12795823       0.00000000 NULL       0.05862900       0.08655200      -0.08956000
P        0.57647491       0.50736229       4.07502046       0.00000000 NULL       0.05863100      -0.08655200       0.08955900
P        1.47759753       5.12795823       0.50736229       0.00000000 NULL       0.05863200      -0.08956000      -0.08655200
P       -0.32464771       4.07502046       8.69561640       0.00000000 NULL       0.05862900       0.08956000       0.08655200
P        3.11371140       7.89760458       0.58193845       0.00000000 NULL       0.09427200      -0.05836200       0.00723300
P        1.31146616       1.30537411       8.62104024       0.00000000 NULL       0.09427400       0.05836200      -0.00723200
P        2.21258878       0.58193845       1.30537411       0.00000000 NULL       0.09427200       0.00723100       0.05836200
P        0.41034354       8.62104024       7.89760458       0.00000000 NULL       0.09427500      -0.00723200      -0.05836300
12
Lattice="3.6470684371858346 0.0 0.0 0.0 9.111781574639792 0.0 0.0 0.0 9.111781574639792" Properties=species:S:1:pos:R:3:initial_magmoms:R:1:castep_labels:S:1:forces:R:3 n_minim_iter=16 energy=-63.121795255533 stress="-0.004391236581455139 -0.0 -0.0 -0.0 -0.002595474620663779 0.0 -0.0 0.0 -0.002595474620663779" free_energy=-63.121795255533 pbc="T T T"
P        3.77012402       2.47250458       1.03471836       0.00000000 NULL      -0.11658600      -0.11875700       0.13210300
P        1.94658980       6.63927700       8.07706322       0.00000000 NULL      -0.11658700       0.11875600      -0.13210300
P        2.85835691       1.03471836       6.63927700       0.00000000 NULL      -0.11658800       0.13210400       0.11875600
P        1.03482269       8.07706322       2.47250458       0.00000000 NULL      -0.11658600      -0.13210300      -0.11875600
P        2.36555422       8.61756629       5.08927401       0.00000000 NULL       0.09051600       0.07474300      -0.14025100
P        0.54202000       0.49421528       4.02250757       0.00000000 NULL       0.09051800      -0.07474300       0.14025000
P        1.45378711       5.08927401       0.49421528       0.00000000 NULL       0.09051800      -0.14025100      -0.07474300
P       -0.36974711       4.02250757       8.61756629       0.00000000 NULL       0.09051600       0.14025100       0.07474300
P        3.19762293       7.79176018       0.52707273       0.00000000 NULL       0.02606800      -0.07162200      -0.00731000
P        1.37408871       1.32002139       8.58470884       0.00000000 NULL       0.02607000       0.07162200       0.00731100
P        2.28585582       0.52707273       1.32002139       0.00000000 NULL       0.02606900      -0.00731100       0.07162200
P        0.46232161       8.58470884       7.79176018       0.00000000 NULL       0.02607100       0.00731100      -0.07162300
12
Lattice="3.7182936930579147 0.0 0.0 0.0 9.028137763759677 0.0 0.0 0.0 9.028137763759677" Properties=species:S:1:pos:R:3:initial_magmoms:R:1:castep_labels:S:1:forces:R:3 n_minim_iter=17 energy=-63.166312773361 stress="0.0013067033841485814 0.0 0.0 0.0 0.000696279349838477 -0.0 0.0 -0.0 0.000696279349838477" free_energy=-63.166312773361 pbc="T T T"
P        3.81326291       2.45885622       1.08716978       0.00000000 NULL      -0.00658200      -0.13447900       0.03315600
P        1.95411607       6.56928155       7.94096799       0.00000000 NULL      -0.00658200       0.13448000      -0.03315600
P        2.88368949       1.08716978       6.56928155       0.00000000 NULL      -0.00658100       0.03315600       0.13448000
P        1.02454264       7.94096799       2.45885622       0.00000000 NULL      -0.00658200      -0.03315600      -0.13448000
P        2.42001555       8.55906664       5.05073553       0.00000000 NULL       0.06040500       0.04709100      -0.15487700
P        0.56086870       0.46907113       3.97740223       0.00000000 NULL       0.06040400      -0.04709100       0.15487700
P        1.49044213       5.05073553       0.46907113       0.00000000 NULL       0.06040300      -0.15487700      -0.04709100
P       -0.36870472       3.97740223       8.55906664       0.00000000 NULL       0.06040500       0.15487700       0.04709100
P        3.28229699       7.68118557       0.46020630       0.00000000 NULL      -0.05382200       0.09700400      -0.11607400
P        1.42315015       1.34695219       8.56793147       0.00000000 NULL      -0.05382300      -0.09700400       0.11607300
P        2.35272357       0.46020630       1.34695219       0.00000000 NULL      -0.05382200      -0.11607300      -0.09700400
P        0.49357672       8.56793147       7.68118557       0.00000000 NULL      -0.05382400       0.11607300       0.09700400
12
Lattice="3.7253715050503677 0.0 0.0 0.0 9.09153315455899 0.0 0.0 0.0 9.09153315455899" Properties=species:S:1:pos:R:3:initial_magmoms:R:1:castep_labels:S:1:forces:R:3 n_minim_iter=18 energy=-63.198744374726 stress="0.002292024781787463 0.0 0.0 0.0 0.0015433666170234976 -0.0 0.0 -0.0 0.0015433666170234976" free_energy=-63.198744374726 pbc="T T T"
P        3.78607735       2.45514576       1.09048448       0.00000000 NULL       0.03246000      -0.06243500      -0.07059400
P        1.92339160       6.63638739       8.00104867       0.00000000 NULL       0.03246100       0.06243600       0.07059400
P        2.85473448       1.09048448       6.63638739       0.00000000 NULL       0.03246200      -0.07059500       0.06243600
P        0.99204873       8.00104867       2.45514576       0.00000000 NULL       0.03246000       0.07059400      -0.06243600
P        2.49245276       8.63037544       5.07350516       0.00000000 NULL      -0.00730200       0.00529300      -0.04186700
P        0.62976701       0.46115771       4.01802799       0.00000000 NULL      -0.00730400      -0.00529300       0.04186700
P        1.56110989       5.07350516       0.46115771       0.00000000 NULL      -0.00730400      -0.04186700      -0.00529300
P       -0.30157586       4.01802799       8.63037544       0.00000000 NULL      -0.00730200       0.04186600       0.00529300
P        3.25515812       7.74499365       0.44368484       0.00000000 NULL      -0.02515600       0.02095100      -0.14886400
P        1.39247237       1.34653950       8.64784832       0.00000000 NULL      -0.02515800      -0.02095100       0.14886300
P        2.32381524       0.44368484       1.34653950       0.00000000 NULL      -0.02515700      -0.14886300      -0.02095100
P        0.46112949       8.64784832       7.74499365       0.00000000 NULL      -0.02516000       0.14886300       0.02095100
12
Lattice="3.8086589273725555 0.0 0.0 0.0 9.253369587188804 0.0 0.0 0.0 9.253369587188804" Properties=species:S:1:pos:R:3:initial_magmoms:R:1:castep_labels:S:1:forces:R:3 n_minim_iter=19 energy=-63.404865224913 stress="0.021044084098185194 0.0 -0.0 0.0 -0.0022303421730770637 -0.0 -0.0 -0.0 -0.0022303421730770637" free_energy=-63.404865224913 pbc="T T T"
P        3.67308406       2.46964371       1.10680681       0.00000000 NULL       0.08610000       0.25559000      -0.19285800
P        1.76875460       6.78372588       8.14656278       0.00000000 NULL       0.08610000      -0.25559000       0.19285800
P        2.72091933       1.10680681       6.78372588       0.00000000 NULL       0.08610000      -0.19285800      -0.25559000
P        0.81658987       8.14656278       2.46964371       0.00000000 NULL       0.08610000       0.19285800       0.25559000
P        2.70181416       8.82634082       5.12490075       0.00000000 NULL      -0.04596600      -0.11069900       0.48854900
P        0.79748470       0.42702876       4.12846884       0.00000000 NULL      -0.04596700       0.11069900      -0.48854900
P        1.74964943       5.12490075       0.42702876       0.00000000 NULL      -0.04596700       0.48854900       0.11069900
P       -0.15468003       4.12846884       8.82634082       0.00000000 NULL      -0.04596600      -0.48854900      -0.11069900
P        3.37192984       7.84316271       0.06011220       0.00000000 NULL      -0.04013300      -0.47934200      -0.19731900
P        1.46760038       1.41020687       9.19325738       0.00000000 NULL      -0.04013400       0.47934200       0.19731900
P        2.41976511       0.06011220       1.41020687       0.00000000 NULL      -0.04013400      -0.19731900       0.47934200
P        0.51543565       9.19325738       7.84316271       0.00000000 NULL      -0.04013400       0.19731900      -0.47934200
12
Lattice="3.8116066142937703 0.0 0.0 0.0 9.272821670656652 0.0 0.0 0.0 9.272821670656652" Properties=species:S:1:pos:R:3:initial_magmoms:R:1:castep_labels:S:1:forces:R:3 n_minim_iter=20 energy=-63.417069660443 stress="0.02303297223874071 0.0 -0.0 0.0 -0.0016354027543516623 -0.0 -0.0 -0.0 -0.0016354027543516623" free_energy=-63.417069660443 pbc="T T T"
P        3.65704052       2.47216783       1.11044601       0.00000000 NULL       0.09497100       0.31584600      -0.18768100
P        1.75123722       6.80065385       8.16237566       0.00000000 NULL       0.09497000      -0.31584600       0.18768000
P        2.70413887       1.11044601       6.80065385       0.00000000 NULL       0.09497100      -0.18768100      -0.31584600
P        0.79833556       8.16237566       2.47216783       0.00000000 NULL       0.09497000       0.18768100       0.31584700
P        2.71781972       8.84913296       5.13317807       0.00000000 NULL      -0.06774900      -0.10322500       0.55582200
P        0.81201641       0.42368871       4.13964360       0.00000000 NULL      -0.06775100       0.10322500      -0.55582300
P        1.76491807       5.13317807       0.42368871       0.00000000 NULL      -0.06775100       0.55582200       0.10322500
P       -0.14088524       4.13964360       8.84913296       0.00000000 NULL      -0.06774900      -0.55582200      -0.10322500
P        3.37951102       7.85503220       0.02116450       0.00000000 NULL      -0.02722000      -0.43742400      -0.16368300
P        1.47370771       1.41778947       9.25165717       0.00000000 NULL      -0.02722200       0.43742500       0.16368300
P        2.42660937       0.02116450       1.41778947       0.00000000 NULL      -0.02722100      -0.16368300       0.43742400
P        0.52080606       9.25165717       7.85503220       0.00000000 NULL      -0.02722200       0.16368200      -0.43742400
12
Lattice="3.682829221315925 0.0 0.0 0.0 9.413144968823692 0.0 0.0 0.0 9.413144968823692" Properties=species:S:1:pos:R:3:initial_magmoms:R:1:castep_labels:S:1:forces:R:3 n_minim_iter=21 energy=-63.752733129274 stress="0.02271471070345886 0.0 0.0 0.0 -0.0011785164356349581 0.0 0.0 0.0 -0.0011785164356349581" free_energy=-63.752733129274 pbc="T T T"
P        3.46073556       2.49531366       1.18401411       0.00000000 NULL       0.00029100       0.87425400      -0.03197700
P        1.61932095       6.91783131       8.22913086       0.00000000 NULL       0.00029200      -0.87425400       0.03197700
P        2.54002825       1.18401411       6.91783131       0.00000000 NULL       0.00029100      -0.03197700      -0.87425400
P        0.69861364       8.22913086       2.49531366       0.00000000 NULL       0.00029200       0.03197700       0.87425400
P        2.61575947       9.00988564       5.23309217       0.00000000 NULL      -0.06949600      -0.07854400       0.80960400
P        0.77434486       0.40325933       4.18005280       0.00000000 NULL      -0.06949500       0.07854400      -0.80960400
P        1.69505217       5.23309217       0.40325933       0.00000000 NULL      -0.06949500       0.80960400       0.07854400
P       -0.14636244       4.18005280       9.00988564       0.00000000 NULL      -0.06949600      -0.80960400      -0.07854400
P        3.34831513       7.94198266      -0.24160166       0.00000000 NULL       0.06920400       0.02310800       0.13397400
P        1.50690052       1.47116231       9.65474663       0.00000000 NULL       0.06920500      -0.02310800      -0.13397400
P        2.42760782      -0.24160166       1.47116231       0.00000000 NULL       0.06920400       0.13397400      -0.02310800
P        0.58619321       9.65474663       7.94198266       0.00000000 NULL       0.06920500      -0.13397400       0.02310900
