5
Lattice="3.061599999999999 1.3293779558442806e-15 1.381763819118345e-17 -0.9889694191169704 3.557150597451765 -7.121382630070231e-16 -0.24425533634937674 -0.5930927644938018 9.617294156828619" Properties=species:S:1:pos:R:3:initial_magmoms:R:1:castep_labels:S:1 n_minim_iter=1 pbc="T T T"
P        0.87934929       1.24845867       1.06271100       0.00000000 NULL
P       -0.55275877       2.08307735       6.07582464       0.00000000 NULL
P        0.19638576       2.07616215       9.31810783       0.00000000 NULL
P        0.71813476       0.23055445       7.83303123       0.00000000 NULL
P        1.24498615       2.46215043       7.63546604       0.00000000 NULL
5
Lattice="3.065882898922363 9.212224421409343e-05 -0.0010695196066702161 -0.9902458639051015 3.56160546434881 -0.0003615503362306487 -0.24797451671819531 -0.595759410787645 9.63269724221757" Properties=species:S:1:pos:R:3:initial_magmoms:R:1:castep_labels:S:1 n_minim_iter=2 pbc="T T T"
P        0.88031779       1.24967525       1.06400716       0.00000000 NULL
P       -0.55546001       2.08437961       6.08490596       0.00000000 NULL
P        0.19326791       2.07699265       9.33271168       0.00000000 NULL
P        0.71627228       0.22967156       7.84505030       0.00000000 NULL
P        1.24426826       2.46362571       7.64644392       0.00000000 NULL
5
Lattice="3.234420902353419 0.004447642801496528 -0.04439187238369713 -1.0396271314775458 3.7362507229676694 -0.015420192944136548 -0.39835122976574755 -0.7040091338974077 10.240453358327983" Properties=species:S:1:pos:R:3:initial_magmoms:R:1:castep_labels:S:1 n_minim_iter=3 pbc="T T T"
P        0.91829788       1.29699031       1.11453963       0.00000000 NULL
P       -0.66338918       2.13315663       6.44224359       0.00000000 NULL
P        0.06690023       2.10618007       9.90856674       0.00000000 NULL
P        0.63971586       0.19285297       8.31855377       0.00000000 NULL
P        1.21377428       2.51886414       8.07780368       0.00000000 NULL
5
Lattice="3.3026485323569084 0.02654431239009053 -0.071410487293777 -1.035993037599674 3.7704350485011986 -0.03789114477639897 -0.49294761886541666 -0.7970118909147054 10.39391562731683" Properties=species:S:1:pos:R:3:initial_magmoms:R:1:castep_labels:S:1 n_minim_iter=4 pbc="T T T"
P        0.93921715       1.30395329       1.11071307       0.00000000 NULL
P       -0.71034436       2.09914141       6.51975926       0.00000000 NULL
P       -0.00053684       2.05053449      10.04108262       0.00000000 NULL
P        0.58414851       0.14278731       8.42721463       0.00000000 NULL
P        1.19494140       2.48366502       8.15495532       0.00000000 NULL
5
Lattice="3.353320250333384 0.056744933287897086 -0.10331835827197654 -1.0172723107976143 3.7486797775274674 -0.06793437869874483 -0.6030717331752368 -0.9065135081107965 10.429291462766743" Properties=species:S:1:pos:R:3:initial_magmoms:R:1:castep_labels:S:1 n_minim_iter=5 pbc="T T T"
P        0.95675804       1.29191688       1.08604450       0.00000000 NULL
P       -0.75771554       2.01796742       6.52023212       0.00000000 NULL
P       -0.07886450       1.93962686      10.05225500       0.00000000 NULL
P        0.51150037       0.07047458       8.43596158       0.00000000 NULL
P        1.16407672       2.39515333       8.12808422       0.00000000 NULL
5
Lattice="3.4113837324948193 0.10221596781197215 -0.14958876624644793 -0.9831972162722153 3.6862016356455665 -0.11499026711682823 -0.7618602689676974 -1.0698057277132191 10.436169997985786" Properties=species:S:1:pos:R:3:initial_magmoms:R:1:castep_labels:S:1 n_minim_iter=6 pbc="T T T"
P        0.97861369       1.26362517       1.04401418       0.00000000 NULL
P       -0.82297201       1.87666424       6.49198774       0.00000000 NULL
P       -0.19306877       1.75132463      10.02165552       0.00000000 NULL
P        0.40200624      -0.04500784       8.41025655       0.00000000 NULL
P        1.11614325       2.24016258       8.05216067       0.00000000 NULL
5
Lattice="3.5645456111041525 0.2493885299318333 -0.29979247843429635 -0.8616782219052073 3.481595672330383 -0.254186675198552 -1.2744193463974967 -1.5628771773304089 10.612251306356844" Properties=species:S:1:pos:R:3:initial_magmoms:R:1:castep_labels:S:1 n_minim_iter=7 pbc="T T T"
P        1.03893425       1.17724606       0.93755188       0.00000000 NULL
P       -1.03276865       1.43899611       6.50621113       0.00000000 NULL
P       -0.57183744       1.17153424      10.07921075       0.00000000 NULL
P        0.04020287      -0.39350955       8.44463922       0.00000000 NULL
P        0.95368862       1.76960315       7.94385883       0.00000000 NULL
5
Lattice="3.5379553686298566 0.31590021843431554 -0.44373486611527346 -0.7758116720136082 3.3466531149606484 -0.20986886705326172 -1.7373436593548164 -1.5551576560282532 11.026607439594796" Properties=species:S:1:pos:R:3:initial_magmoms:R:1:castep_labels:S:1 n_minim_iter=8 pbc="T T T"
P        1.00664281       1.14793273       0.94360008       0.00000000 NULL
P       -1.26815331       1.35275928       6.79699060       0.00000000 NULL
P       -0.99692974       1.10417194      10.49641715       0.00000000 NULL
P       -0.33514215      -0.36246585       8.70096256       0.00000000 NULL
P        0.67521351       1.69755698       8.18780560       0.00000000 NULL
5
Lattice="3.5616828289898037 0.3898319617580846 -0.5631402588069385 -0.6975778686932878 3.345731398697947 -0.21987690362107992 -2.1286425639374142 -1.6962242847586164 11.001562107029477" Properties=species:S:1:pos:R:3:initial_magmoms:R:1:castep_labels:S:1 n_minim_iter=9 pbc="T T T"
P        0.99699411       1.14553821       0.89208279       0.00000000 NULL
P       -1.46589447       1.26073950       6.78176110       0.00000000 NULL
P       -1.32910982       1.00475686      10.42891693       0.00000000 NULL
P       -0.63257877      -0.42268676       8.61592755       0.00000000 NULL
P        0.48198482       1.62793568       8.05785352       0.00000000 NULL
5
Lattice="3.6000870942125536 0.40410399974445704 -0.6374758644533765 -0.6934012471290337 3.356362507094487 -0.16065079824914139 -2.367979013836581 -1.604697923194218 11.163546438090725" Properties=species:S:1:pos:R:3:initial_magmoms:R:1:castep_labels:S:1 n_minim_iter=10 pbc="T T T"
P        0.98233204       1.15836705       0.90377775       0.00000000 NULL
P       -1.61553631       1.32039626       6.91902857       0.00000000 NULL
P       -1.55435314       1.11409205      10.61101386       0.00000000 NULL
P       -0.80884174      -0.32595160       8.72208628       0.00000000 NULL
P        0.34159934       1.71171905       8.17798223       0.00000000 NULL
