6
Lattice="3.2966178077848927 0.0 0.0 0.0 6.363903921286881 -1.1920938362917152e-13 0.0 -3.1819519606433375 5.511302463077904" Properties=species:S:1:pos:R:3:initial_magmoms:R:1:castep_labels:S:1:forces:R:3 n_minim_iter=1 energy=-32.676685825558 stress="0.003428020141557057 0.0 -0.0 0.0 0.0008759458066830626 0.0 -0.0 0.0 0.000875772831602754" free_energy=-32.676685825558 pbc="T T T"
P        2.22898649       1.81717793       4.24526367       0.00000000 NULL      -0.00065900       0.06326400       0.10488500
P        0.03124129      -1.40314320       4.96239288       0.00000000 NULL      -0.00066200      -0.12246700       0.00233900
P        1.13011389      -0.41403475       1.81494837       0.00000000 NULL      -0.00066000       0.05920300      -0.10723000
P        0.50154202       3.17310336       3.68233972       0.00000000 NULL       0.00065900       0.00533100       0.05674100
P        1.60041462       1.58835249       0.90681825       0.00000000 NULL       0.00066200      -0.05180500      -0.02375000
P        2.69928723       4.78440002       0.92214448       0.00000000 NULL       0.00066100       0.04647400      -0.03298400
6
Lattice="3.288417865978422 0.0 0.0 0.0 6.3598557461271765 -1.1923352876954672e-13 0.0 -3.1799278730634857 5.50779664055063" Properties=species:S:1:pos:R:3:initial_magmoms:R:1:castep_labels:S:1:forces:R:3 n_minim_iter=2 energy=-32.677439843876 stress="-0.0001443710200046761 0.0 0.0 0.0 -0.0010342972533588161 0.0 0.0 0.0 -0.001034210439756889" free_energy=-32.677439843876 pbc="T T T"
P        2.22343802       1.81641925       4.24322182       0.00000000 NULL      -0.01538800       0.02617100       0.09022000
P        0.03115944      -1.40301964       4.95925094       0.00000000 NULL      -0.01538800      -0.09121800      -0.02244200
P        1.12729873      -0.41339961       1.81312052       0.00000000 NULL      -0.01538900       0.06504400      -0.06777400
P        0.50029864       3.17111837       3.68035362       0.00000000 NULL       0.01538800       0.02030600       0.02380700
P        1.59643793       1.58701682       0.90609226       0.00000000 NULL       0.01538800      -0.03076900       0.00567900
P        2.69257721       4.78164842       0.92135075       0.00000000 NULL       0.01538800       0.01046600      -0.02949000
6
Lattice="3.2756783401973397 0.0 0.0 0.0 6.391127838430144 -1.205805037157389e-13 0.0 -3.195563919214968 5.534879066914493" Properties=species:S:1:pos:R:3:initial_magmoms:R:1:castep_labels:S:1:forces:R:3 n_minim_iter=3 energy=-32.679001006139 stress="-0.0017284257674486366 -0.0 0.0 -0.0 0.0013671720095826494 0.0 0.0 0.0 0.0013671720095826494" free_energy=-32.679001006139 pbc="T T T"
P        2.21403357       1.82745801       4.26999212       0.00000000 NULL       0.00357200       0.05953600       0.09314000
P        0.03024801      -1.41608675       4.98250807       0.00000000 NULL       0.00357400      -0.11043100       0.00498900
P        1.12214079      -0.41137128       1.81725794       0.00000000 NULL       0.00357500       0.05089200      -0.09813100
P        0.49915115       3.18782106       3.70035750       0.00000000 NULL      -0.00357200      -0.00255000       0.05891700
P        1.59104393       1.59261370       0.91055527       0.00000000 NULL      -0.00357400      -0.04974800      -0.03166800
P        2.68293671       4.80625699       0.92396629       0.00000000 NULL      -0.00357500       0.05230100      -0.02724800
6
Lattice="3.280295044697224 0.0 0.0 0.0 6.406508047866258 -1.2010652909116253e-13 0.0 -3.203254023933025 5.548198719001692" Properties=species:S:1:pos:R:3:initial_magmoms:R:1:castep_labels:S:1:forces:R:3 n_minim_iter=4 energy=-32.681748399548 stress="-7.916175183786514e-05 -0.0 0.0 -0.0 -0.0004818317679578834 -0.0 0.0 -0.0 -0.0004818317679578834" free_energy=-32.681748399548 pbc="T T T"
P        2.21590687       1.83789029       4.29428668       0.00000000 NULL       0.04551800       0.05880700      -0.01892100
P        0.02904351      -1.43465248       4.99271506       0.00000000 NULL       0.04551900      -0.01301600       0.06039300
P        1.12247519      -0.40323782       1.80939570       0.00000000 NULL       0.04551800      -0.04579100      -0.04146700
P        0.50110176       3.19733599       3.71492559       0.00000000 NULL      -0.04551800      -0.08540000       0.01612300
P        1.59453344       1.59062011       0.91151140       0.00000000 NULL      -0.04551900       0.02873800      -0.08202200
P        2.68796512       4.82180595       0.92176173       0.00000000 NULL      -0.04551800       0.05666200       0.06589500
6
Lattice="3.2840744764630805 0.0 0.0 0.0 6.436328706201271 -1.1966397906036143e-13 0.0 -3.2181643531005313 5.574024166677388" Properties=species:S:1:pos:R:3:initial_magmoms:R:1:castep_labels:S:1:forces:R:3 n_minim_iter=5 energy=-32.683870403377 stress="-0.00017178708245414503 -8.487504073821396e-08 0.0 -8.487504073821396e-08 -0.0004702926007304435 8.487504073821396e-08 0.0 8.487504073821396e-08 -0.0004702926007304435" free_energy=-32.683870403377 pbc="T T T"
P        2.22119520       1.85603278       4.32351812       0.00000000 NULL      -0.01725000      -0.02091500       0.00415900
P        0.03181222      -1.45412857       5.01963664       0.00000000 NULL      -0.01724700       0.00685400      -0.02019500
P        1.12650371      -0.40190422       1.80489356       0.00000000 NULL      -0.01724500       0.01405800       0.01603200
P        0.49894385       3.20661214       3.73807123       0.00000000 NULL       0.01725000      -0.01652000       0.00338900
P        1.59363534       1.59575799       0.90797196       0.00000000 NULL       0.01724700       0.00532600      -0.01600300
P        2.68832683       4.85212292       0.92798097       0.00000000 NULL       0.01724500       0.01119800       0.01261700
6
Lattice="3.284107832443831 0.0 0.0 0.0 6.441278291841124 -1.2114749526419017e-13 0.0 -3.2206391459204564 5.578310633579707" Properties=species:S:1:pos:R:3:initial_magmoms:R:1:castep_labels:S:1:forces:R:3 n_minim_iter=6 energy=-32.684197194391 stress="-0.00016753844182342537 0.0 0.0 0.0 -0.00034600883053366 -0.0 0.0 -0.0 -0.00034592408675934364" free_energy=-32.684197194391 pbc="T T T"
P        2.21931764       1.85647370       4.32907215       0.00000000 NULL       0.01422600      -0.03182100       0.01658900
P        0.02991242      -1.45668417       5.02152795       0.00000000 NULL       0.01422600       0.00154700      -0.03584800
P        1.12461503      -0.39978955       1.80602116       0.00000000 NULL       0.01422400       0.03027800       0.01926500
P        0.50084906       3.20414209       3.74379226       0.00000000 NULL      -0.01422600       0.00124200      -0.00943800
P        1.59555167       1.59698803       0.90297232       0.00000000 NULL      -0.01422600       0.00755200       0.00579300
P        2.69025428       4.86078730       0.93154605       0.00000000 NULL      -0.01422400      -0.00879700       0.00363800
6
Lattice="3.2832000172002798 0.0 0.0 0.0 6.455668311741614 -1.231725447323613e-13 0.0 -3.2278341558706996 5.590772756374494" Properties=species:S:1:pos:R:3:initial_magmoms:R:1:castep_labels:S:1:forces:R:3 n_minim_iter=7 energy=-32.685234710033 stress="4.4979727836094716e-05 0.0 0.0 0.0 0.000524904140976565 -0.0 0.0 -0.0 0.000524988530709841" free_energy=-32.685234710033 pbc="T T T"
P        2.22016354       1.84645092       4.35348573       0.00000000 NULL      -0.00837500       0.00699900       0.01067100
P        0.03136352      -1.46562055       5.01310330       0.00000000 NULL      -0.00837400      -0.01273800       0.00072900
P        1.12576353      -0.38083038       1.81495648       0.00000000 NULL      -0.00837500       0.00574200      -0.01139600
P        0.49925133       3.19375069       3.75978374       0.00000000 NULL       0.00837500      -0.01978900      -0.03787100
P        1.59365133       1.60272473       0.88597736       0.00000000 NULL       0.00837400       0.04269100       0.00179700
P        2.68805134       4.88702704       0.94501165       0.00000000 NULL       0.00837500      -0.02290500       0.03607000
6
Lattice="3.2822436409514526 0.0 0.0 0.0 6.457707851072259 -1.243512396351329e-13 0.0 -3.2288539255360207 5.592539049246851" Properties=species:S:1:pos:R:3:initial_magmoms:R:1:castep_labels:S:1:forces:R:3 n_minim_iter=8 energy=-32.687690886406 stress="0.0008558423309645281 0.0 -0.0 0.0 0.002225527504502239 0.0 -0.0 0.0 0.0022254431435036223" free_energy=-32.687690886406 pbc="T T T"
P        2.21866679       1.82410003       4.38756801       0.00000000 NULL       0.00970700       0.02240600      -0.00130900
P        0.03050437      -1.48294146       4.97847201       0.00000000 NULL       0.00970400      -0.01007100       0.02005700
P        1.12458558      -0.34115858       1.81903807       0.00000000 NULL       0.00970400      -0.01233600      -0.01875000
P        0.49995604       3.15495590       3.75307072       0.00000000 NULL      -0.00970700      -0.02977400       0.02719000
P        1.59403725       1.62997531       0.85573660       0.00000000 NULL      -0.00970300      -0.00866000      -0.03937900
P        2.68811847       4.90163055       0.98373173       0.00000000 NULL      -0.00970400       0.03843500       0.01219100
6
Lattice="3.2838823964939117 0.0 0.0 0.0 6.4356324777678555 -1.2558375119763775e-13 0.0 -3.217816238883818 5.573421215167214" Properties=species:S:1:pos:R:3:initial_magmoms:R:1:castep_labels:S:1:forces:R:3 n_minim_iter=9 energy=-32.689770917849 stress="0.0009753125926637552 -0.0 0.0 -0.0 0.0020190532798336895 -0.0 0.0 -0.0 0.0020191381782139702" free_energy=-32.689770917849 pbc="T T T"
P        2.21920739       1.78872456       4.39719938       0.00000000 NULL       0.01415400       0.03788500       0.01205900
P        0.02995246      -1.48463242       4.92390244       0.00000000 NULL       0.01415700      -0.02938400       0.02677900
P        1.12457992      -0.30409216       1.82574061       0.00000000 NULL       0.01415700      -0.00849600      -0.03883800
P        0.50077275       3.10401619       3.73538882       0.00000000 NULL      -0.01415400      -0.02210200       0.03875600
P        1.59540021       1.64868277       0.82046246       0.00000000 NULL      -0.01415700      -0.02251400      -0.03851700
P        2.69002768       4.90074975       1.01756993       0.00000000 NULL      -0.01415600       0.04461200      -0.00023900
6
Lattice="3.2863349888810744 0.0 0.0 0.0 6.417965124498218 -1.2723783796629933e-13 0.0 -3.208982562248998 5.558120838418074" Properties=species:S:1:pos:R:3:initial_magmoms:R:1:castep_labels:S:1:forces:R:3 n_minim_iter=10 energy=-32.690929530654 stress="0.0003669722565558192 0.0 0.0 0.0 0.000493049661295359 -0.0 0.0 -0.0 0.000493049661295359" free_energy=-32.690929530654 pbc="T T T"
P        2.22073481       1.75924279       4.41317743       0.00000000 NULL       0.00568300       0.01640600       0.01433100
P        0.02984482      -1.49256260       4.87508108       0.00000000 NULL       0.00568400      -0.02061500       0.00704500
P        1.12528982      -0.26668020       1.82798317       0.00000000 NULL       0.00568300       0.00420800      -0.02137400
P        0.50127662       3.05518277       3.72364663       0.00000000 NULL      -0.00568400      -0.00202300       0.01996000
P        1.59672162       1.66560115       0.78404258       0.00000000 NULL      -0.00568400      -0.01627400      -0.01173300
P        2.69216662       4.90616375       1.05043162       0.00000000 NULL      -0.00568300       0.01829700      -0.00823000
6
Lattice="3.287703608833443 0.0 0.0 0.0 6.423603701375357 -1.3111981944449486e-13 0.0 -3.2118018506875643 5.563003989234871" Properties=species:S:1:pos:R:3:initial_magmoms:R:1:castep_labels:S:1:forces:R:3 n_minim_iter=11 energy=-32.69138705659 stress="-5.830552757140126e-05 0.0 -0.0 0.0 -0.0003798796635783413 0.0 -0.0 0.0 -0.00037996478113683967" free_energy=-32.69138705659 pbc="T T T"
P        2.22192545       1.73896025       4.45692684       0.00000000 NULL      -0.00411700      -0.01682800       0.00041100
P        0.03012304      -1.51749014       4.84052432       0.00000000 NULL      -0.00412100       0.00805600      -0.01478100
P        1.12602424      -0.22147011       1.82855682       0.00000000 NULL      -0.00412000       0.00876900       0.01436700
P        0.50121815       3.01221067       3.73190926       0.00000000 NULL       0.00411700       0.00850200      -0.00725600
P        1.59711935       1.68557014       0.74269633       0.00000000 NULL       0.00412100       0.00203400       0.01099100
P        2.69302055       4.93762474       1.08839839       0.00000000 NULL       0.00412000      -0.01053300      -0.00373300
6
Lattice="3.2869247845670757 0.0 0.0 0.0 6.423809479092338 -1.3148399734215848e-13 0.0 -3.2119047395460543 5.563182197965309" Properties=species:S:1:pos:R:3:initial_magmoms:R:1:castep_labels:S:1:forces:R:3 n_minim_iter=12 energy=-32.69143855439 stress="0.00017239288802176363 0.0 -0.0 0.0 0.0001855883930308369 -8.513229038111785e-08 -0.0 -8.513229038111785e-08 0.0001855883930308369" free_energy=-32.69143855439 pbc="T T T"
P        2.22131324       1.73061160       4.46659815       0.00000000 NULL      -0.00007000       0.00191900       0.00485700
P        0.03003005      -1.52158853       4.82863673       0.00000000 NULL      -0.00007200      -0.00516600      -0.00076700
P        1.12567165      -0.20902308       1.83112951       0.00000000 NULL      -0.00007300       0.00325100      -0.00409000
P        0.50118519       3.00016531       3.73214468       0.00000000 NULL       0.00007000       0.00337500       0.00448700
P        1.59682679       1.69159472       0.73214703       0.00000000 NULL       0.00007200      -0.00557500       0.00068400
P        2.69246838       4.94395418       1.09889048       0.00000000 NULL       0.00007300       0.00219400      -0.00517000
