9
Lattice="5.950590000000003 5.806778232785905e-16 -3.147456749427946e-16 -0.6781474904213161 5.911821828280627 -2.5759585548286826e-17 -0.6781474904213152 -0.7603851780997085 5.862717092804458" Properties=species:S:1:pos:R:3:initial_magmoms:R:1:castep_labels:S:1 n_minim_iter=1 pbc="T T T"
P        5.20632913       4.58215111       0.32204784       0.00000000 NULL
P        3.95896910      -0.41307376       5.68872748       0.00000000 NULL
P       -0.86155884       5.14164110       4.58551303       0.00000000 NULL
P        3.70394140       4.35028055       3.30075369       0.00000000 NULL
P        3.89982589       2.73626900       4.56544495       0.00000000 NULL
P        2.27400605       3.98908303       4.73869293       0.00000000 NULL
P        3.03079126       3.41277236       1.65936879       0.00000000 NULL
P        3.04513983       1.20827706       3.58516464       0.00000000 NULL
P        0.85337165       3.14855700       3.59785509       0.00000000 NULL
9
Lattice="5.96044282595831 0.004204803323098141 0.0047853781358923875 -0.6750929397176146 5.922089655234231 0.004785378135891485 -0.6750929397176151 -0.7569602077007095 5.873515133923967" Properties=species:S:1:pos:R:3:initial_magmoms:R:1:castep_labels:S:1 n_minim_iter=2 pbc="T T T"
P        5.21862000       4.59439720       0.33147293       0.00000000 NULL
P        3.96973470      -0.40547703       5.70343313       0.00000000 NULL
P       -0.85523848       5.15473758       4.59886967       0.00000000 NULL
P        3.71579501       4.36394349       3.31414562       0.00000000 NULL
P        3.91204895       2.74783473       4.58039014       0.00000000 NULL
P        2.28410346       4.00217265       4.75396487       0.00000000 NULL
P        3.03946873       3.42246012       1.66810284       0.00000000 NULL
P        3.05377556       1.21568773       3.59593224       0.00000000 NULL
P        0.85974988       3.15802303       3.60858576       0.00000000 NULL
9
Lattice="6.200496036282921 0.10987182853818607 0.1250422922634366 -0.5974715367900367 6.172621054089769 0.1250422922634366 -0.5974715367900364 -0.6699258012874871 6.137433150187142" Properties=species:S:1:pos:R:3:initial_magmoms:R:1:castep_labels:S:1 n_minim_iter=3 pbc="T T T"
P        5.52107559       4.89657939       0.56806040       0.00000000 NULL
P        4.23547940      -0.21393283       6.06600403       0.00000000 NULL
P       -0.69522728       5.47753154       4.92897201       0.00000000 NULL
P        4.00892214       4.70158001       3.64636122       0.00000000 NULL
P        4.21408009       3.03488508       4.95007707       0.00000000 NULL
P        2.53486327       4.32598679       5.13152686       0.00000000 NULL
P        3.25356872       3.66145088       1.88553869       0.00000000 NULL
P        3.26680980       1.40045600       3.86184732       0.00000000 NULL
P        1.01903635       3.39179884       3.87355826       0.00000000 NULL
9
Lattice="6.272470093777876 0.1775986484907369 0.20212043801976032 -0.538388342335389 6.2518445558187805 0.20212043801975982 -0.5383883423353892 -0.6036776974860772 6.225912484057584" Properties=species:S:1:pos:R:3:initial_magmoms:R:1:castep_labels:S:1 n_minim_iter=4 pbc="T T T"
P        5.64339398       5.02720860       0.71619507       0.00000000 NULL
P        4.35131778      -0.08457360       6.22033264       0.00000000 NULL
P       -0.57991212       5.61387992       5.07756945       0.00000000 NULL
P        4.14529068       4.85747332       3.80987500       0.00000000 NULL
P        4.35341678       3.17732999       5.12308168       0.00000000 NULL
P        2.66050092       4.47766155       5.30715662       0.00000000 NULL
P        3.34937329       3.76728877       2.00615417       0.00000000 NULL
P        3.36103998       1.50627603       3.98371226       0.00000000 NULL
P        1.11342820       3.49905940       3.99403075       0.00000000 NULL
9
Lattice="6.258589588664737 0.2252187912208813 0.2563156933833299 -0.4894965805157774 6.243481419923102 0.2563156933833293 -0.48949658051577777 -0.5488569224424108 6.224589468734991" Properties=species:S:1:pos:R:3:initial_magmoms:R:1:castep_labels:S:1 n_minim_iter=5 pbc="T T T"
P        5.67272013       5.06913077       0.81748642       0.00000000 NULL
P        4.38962473       0.01151453       6.26699183       0.00000000 NULL
P       -0.48881559       5.65384810       5.13217161       0.00000000 NULL
P        4.20113302       4.92026524       3.88552432       0.00000000 NULL
P        4.40943564       3.24429483       5.19492602       0.00000000 NULL
P        2.72064540       4.54076929       5.37915708       0.00000000 NULL
P        3.38375284       3.80405929       2.07666895       0.00000000 NULL
P        3.39365295       1.57127299       4.03080949       0.00000000 NULL
P        1.17428503       3.54064531       4.03956554       0.00000000 NULL
9
Lattice="6.215097415838586 0.26448354699937043 0.30100189851006115 -0.4455311337032076 6.204747331189076 0.30100189851005976 -0.44553113370320896 -0.49955986748458825 6.191924702837023" Properties=species:S:1:pos:R:3:initial_magmoms:R:1:castep_labels:S:1 n_minim_iter=6 pbc="T T T"
P        5.66913940       5.07743275       0.90114357       0.00000000 NULL
P        4.39828069       0.09481266       6.27516232       0.00000000 NULL
P       -0.40704660       5.65962365       5.15116470       0.00000000 NULL
P        4.22785982       4.94998052       3.92563162       0.00000000 NULL
P        4.43591146       3.28021820       5.22977509       0.00000000 NULL
P        2.75331745       4.57141917       5.41378418       0.00000000 NULL
P        3.39491737       3.81456089       2.12991178       0.00000000 NULL
P        3.40281378       1.62249301       4.04984416       0.00000000 NULL
P        1.22412735       3.55760049       4.05682805       0.00000000 NULL
9
Lattice="6.176315491483234 0.3031056743773221 0.34495674484040206 -0.40274092292362096 6.170619567691573 0.3449567448404007 -0.40274092292362224 -0.4515805672525022 6.163733932955646" Properties=species:S:1:pos:R:3:initial_magmoms:R:1:castep_labels:S:1 n_minim_iter=7 pbc="T T T"
P        5.67024697       5.08562138       0.98695839       0.00000000 NULL
P        4.40628975       0.17965313       6.28821658       0.00000000 NULL
P       -0.32367161       5.67030246       5.17032292       0.00000000 NULL
P        4.25790168       4.98468380       3.96153600       0.00000000 NULL
P        4.46696498       3.31147682       5.26791343       0.00000000 NULL
P        2.78083347       4.60481442       5.45281726       0.00000000 NULL
P        3.40588213       3.82444626       2.18843383       0.00000000 NULL
P        3.41138517       1.67898296       4.06929138       0.00000000 NULL
P        1.27927244       3.57496287       4.07415849       0.00000000 NULL
9
Lattice="6.109014228829516 0.35927916913595176 0.40888634938526464 -0.339263540873156 6.1101584774251725 0.40888634938526364 -0.3392635408731568 -0.3804054008801267 6.111997741896301" Properties=species:S:1:pos:R:3:initial_magmoms:R:1:castep_labels:S:1 n_minim_iter=8 pbc="T T T"
P        5.66465068       5.08334433       1.11593125       0.00000000 NULL
P        4.40466531       0.30830321       6.29903421       0.00000000 NULL
P       -0.19567456       5.67935205       5.18465342       0.00000000 NULL
P        4.29733924       5.03170244       3.99918940       0.00000000 NULL
P        4.50918288       3.34308880       5.31692552       0.00000000 NULL
P        2.80742822       4.64756130       5.50428839       0.00000000 NULL
P        3.41044698       3.82563687       2.28228334       0.00000000 NULL
P        3.41204780       1.77145217       4.08599441       0.00000000 NULL
P        1.37106370       3.59008707       4.08741024       0.00000000 NULL
9
Lattice="6.119238885444641 0.4163601268578245 0.47384871410694357 -0.28371969957080295 6.126821641312099 0.4738487141069417 -0.2837196995708047 -0.3181258610195688 6.136878030795592" Properties=species:S:1:pos:R:3:initial_magmoms:R:1:castep_labels:S:1 n_minim_iter=9 pbc="T T T"
P        5.73262626       5.13637710       1.25098065       0.00000000 NULL
P        4.44960587       0.43276737       6.38936978       0.00000000 NULL
P       -0.07714285       5.76137023       5.25461590       0.00000000 NULL
P        4.39025565       5.14156706       4.08313753       0.00000000 NULL
P        4.60774268       3.41285608       5.43168383       0.00000000 NULL
P        2.86550879       4.74774947       5.62403795       0.00000000 NULL
P        3.44188565       3.85880136       2.41328060       0.00000000 NULL
P        3.44141337       1.89685788       4.13756597       0.00000000 NULL
P        1.49230580       3.63563964       4.13714827       0.00000000 NULL
9
Lattice="6.01574393738289 0.41970377865644926 0.47765403791918415 -0.2686032299453307 6.024382017007257 0.47765403791918254 -0.2686032299453321 -0.30117624517528924 6.035778734854599" Properties=species:S:1:pos:R:3:initial_magmoms:R:1:castep_labels:S:1 n_minim_iter=10 pbc="T T T"
P        5.64580056       5.05938205       1.25003567       0.00000000 NULL
P        4.38300736       0.44405370       6.29500299       0.00000000 NULL
P       -0.05834028       5.67613200       5.17813883       0.00000000 NULL
P        4.33172296       5.07201754       4.03195769       0.00000000 NULL
P        4.54531684       3.37060031       5.35957245       0.00000000 NULL
P        2.83064255       4.68483342       5.54848331       0.00000000 NULL
P        3.38592593       3.79643249       2.40030872       0.00000000 NULL
P        3.38582817       1.89205866       4.07371545       0.00000000 NULL
P        1.49387251       3.57949266       4.07362899       0.00000000 NULL
9
Lattice="6.064692228864327 0.4237606179902161 0.4822710220577727 -0.2701511184238455 6.0734737395843865 0.4822710220577723 -0.2701511184238455 -0.30291184321707015 6.0850565337864015" Properties=species:S:1:pos:R:3:initial_magmoms:R:1:castep_labels:S:1 n_minim_iter=11 pbc="T T T"
P        5.69444682       5.09913892       1.26299068       0.00000000 NULL
P        4.41696133       0.45010217       6.34909035       0.00000000 NULL
P       -0.05620072       5.72534269       5.21923176       0.00000000 NULL
P        4.36956190       5.11662004       4.06398585       0.00000000 NULL
P        4.58531652       3.39687347       5.40601293       0.00000000 NULL
P        2.85218606       4.72539176       5.59683484       0.00000000 NULL
P        3.40982228       3.82356211       2.42523281       0.00000000 NULL
P        3.41005775       1.91332451       4.10353078       0.00000000 NULL
P        1.51223854       3.60565249       4.10373904       0.00000000 NULL
9
Lattice="6.061880402125774 0.4270657717587285 0.48603253225557974 -0.26654705337470364 6.0710568973961765 0.4860325322555781 -0.266547053374705 -0.2988707198877308 6.083143576032558" Properties=species:S:1:pos:R:3:initial_magmoms:R:1:castep_labels:S:1 n_minim_iter=12 pbc="T T T"
P        5.69614910       5.09945578       1.26976434       0.00000000 NULL
P        4.41708213       0.45659740       6.35167454       0.00000000 NULL
P       -0.04976157       5.72779477       5.22041723       0.00000000 NULL
P        4.37349100       5.12097383       4.06773739       0.00000000 NULL
P        4.58919417       3.40002796       5.41085859       0.00000000 NULL
P        2.85487809       4.72965543       5.60163499       0.00000000 NULL
P        3.40749902       3.82126850       2.43441538       0.00000000 NULL
P        3.40804385       1.92276130       4.10216368       0.00000000 NULL
P        1.52184336       3.60441577       4.10264555       0.00000000 NULL
9
Lattice="6.0539242314760795 0.4514564996475644 0.513790990140294 -0.2414085217836637 6.065932203473553 0.5137909901402923 -0.241408521783665 -0.27068368522194974 6.081631772907782" Properties=species:S:1:pos:R:3:initial_magmoms:R:1:castep_labels:S:1 n_minim_iter=13 pbc="T T T"
P        5.72133886       5.11087724       1.32030657       0.00000000 NULL
P        4.42555849       0.50333357       6.38428393       0.00000000 NULL
P       -0.00429587       5.75836511       5.23824462       0.00000000 NULL
P        4.41168755       5.16374731       4.10226279       0.00000000 NULL
P        4.62733599       3.42875873       5.45776590       0.00000000 NULL
P        2.87907492       4.77087810       5.64849388       0.00000000 NULL
P        3.39333588       3.80816885       2.50944294       0.00000000 NULL
P        3.39664362       1.99916749       4.09637935       0.00000000 NULL
P        1.59905096       3.59901627       4.09930484       0.00000000 NULL
9
Lattice="6.158621590311764 0.4151104972574776 0.4724265429117731 -0.28944936167493795 6.165805355719036 0.472426542911772 -0.2894493616749388 -0.3245503486141436 6.175355017671087" Properties=species:S:1:pos:R:3:initial_magmoms:R:1:castep_labels:S:1 n_minim_iter=14 pbc="T T T"
P        5.80708973       5.13557811       1.24482949       0.00000000 NULL
P        4.44032599       0.41716384       6.46185217       0.00000000 NULL
P       -0.09158716       5.83466510       5.25303237       0.00000000 NULL
P        4.45124383       5.20990551       4.08567314       0.00000000 NULL
P        4.66868551       3.40657566       5.49982090       0.00000000 NULL
P        2.85232406       4.80762517       5.69213490       0.00000000 NULL
P        3.34880825       3.76706133       2.55986118       0.00000000 NULL
P        3.36087841       2.05545939       4.05434828       0.00000000 NULL
P        1.65905203       3.56107939       4.06502361       0.00000000 NULL
9
Lattice="5.882358920832188 0.47199583719586485 0.5371662800829691 -0.20145088919379014 5.897825368987055 0.5371662800829673 -0.2014508891937915 -0.22588046468003284 5.917927822405519" Properties=species:S:1:pos:R:3:initial_magmoms:R:1:castep_labels:S:1 n_minim_iter=15 pbc="T T T"
P        5.60886072       5.00086513       1.32801845       0.00000000 NULL
P        4.32908146       0.52696677       6.26202550       0.00000000 NULL
P        0.03017817       5.64910390       5.13013821       0.00000000 NULL
P        4.35579005       5.08584679       4.06506510       0.00000000 NULL
P        4.55631324       3.40015464       5.38910538       0.00000000 NULL
P        2.85875116       4.71228268       5.56645601       0.00000000 NULL
P        3.25884573       3.66687686       2.55709761       0.00000000 NULL
P        3.27159905       2.06568298       3.95403630       0.00000000 NULL
P        1.67938357       3.47285915       3.96531584       0.00000000 NULL
9
Lattice="6.124588240118236 0.4407928979044521 0.5016550202244042 -0.26005573721554753 6.134920578408402 0.501655020224403 -0.2600557372155483 -0.2915922138643362 6.148486174946549" Properties=species:S:1:pos:R:3:initial_magmoms:R:1:castep_labels:S:1 n_minim_iter=16 pbc="T T T"
P        5.80141827       5.14551169       1.28400921       0.00000000 NULL
P        4.45084120       0.45659724       6.46242646       0.00000000 NULL
P       -0.05360902       5.83331293       5.26792279       0.00000000 NULL
P        4.46915987       5.22339572       4.13058189       0.00000000 NULL
P        4.68004606       3.44862429       5.52477320       0.00000000 NULL
P        2.89280405       4.83030217       5.71128927       0.00000000 NULL
P        3.34732421       3.76713122       2.58402093       0.00000000 NULL
P        3.36111698       2.07960707       4.05600151       0.00000000 NULL
P        1.68301521       3.56233444       4.06820038       0.00000000 NULL
