12
Lattice="3.7922299999999995 0.0 0.0 0.0 7.365849999999999 0.0 0.0 0.0 9.25255" Properties=species:S:1:pos:R:3:initial_magmoms:R:1:castep_labels:S:1 n_minim_iter=1 pbc="T T T"
P        3.69477538       1.01538758       6.05827458       0.00000000 NULL
P        3.69477538       6.35046242       3.19427542       0.00000000 NULL
P        3.69477538       1.01538758       3.19427542       0.00000000 NULL
P        3.69477538       6.35046242       6.05827458       0.00000000 NULL
P        0.96737929       2.66310097       5.64576722       0.00000000 NULL
P        0.96737929       4.70274903       3.60678278       0.00000000 NULL
P        0.96737929       2.66310097       3.60678278       0.00000000 NULL
P        0.96737929       4.70274903       5.64576722       0.00000000 NULL
P        2.72618295       4.68322143       6.64026090       0.00000000 NULL
P        2.72618295       2.68262857       2.61228910       0.00000000 NULL
P        2.72618295       4.68322143       2.61228910       0.00000000 NULL
P        2.72618295       2.68262857       6.64026090       0.00000000 NULL
12
Lattice="3.8100846950438427 0.0 0.0 0.0 7.425085783695571 0.0 0.0 0.0 9.278751937021221" Properties=species:S:1:pos:R:3:initial_magmoms:R:1:castep_labels:S:1 n_minim_iter=2 pbc="T T T"
P        3.71214552       1.02322768       6.07543852       0.00000000 NULL
P        3.71214552       6.40185811       3.20331341       0.00000000 NULL
P        3.71214552       1.02322768       3.20331341       0.00000000 NULL
P        3.71214552       6.40185811       6.07543852       0.00000000 NULL
P        0.97196739       2.68438982       5.66179261       0.00000000 NULL
P        0.97196739       4.74069596       3.61695933       0.00000000 NULL
P        0.97196739       2.68438982       3.61695933       0.00000000 NULL
P        0.97196739       4.74069596       5.66179261       0.00000000 NULL
P        2.73901071       4.72104593       6.65939280       0.00000000 NULL
P        2.73901071       2.70403985       2.61935914       0.00000000 NULL
P        2.73901071       4.72104593       2.61935914       0.00000000 NULL
P        2.73901071       2.70403985       6.65939280       0.00000000 NULL
12
Lattice="4.016452606350192 0.0 0.0 0.0 8.122657175366236 0.0 0.0 0.0 9.581761472953051" Properties=species:S:1:pos:R:3:initial_magmoms:R:1:castep_labels:S:1 n_minim_iter=3 pbc="T T T"
P        3.91290153       1.11529771       6.27388362       0.00000000 NULL
P        3.91290153       7.00735946       3.30787785       0.00000000 NULL
P        3.91290153       1.11529771       3.30787785       0.00000000 NULL
P        3.91290153       7.00735946       6.27388362       0.00000000 NULL
P        1.02498080       2.93502918       5.84719576       0.00000000 NULL
P        1.02498080       5.18762799       3.73456571       0.00000000 NULL
P        1.02498080       2.93502918       3.73456571       0.00000000 NULL
P        1.02498080       5.18762799       5.84719576       0.00000000 NULL
P        2.88730440       5.16660053       6.88070462       0.00000000 NULL
P        2.88730440       2.95605665       2.70105686       0.00000000 NULL
P        2.88730440       5.16660053       2.70105686       0.00000000 NULL
P        2.88730440       2.95605665       6.88070462       0.00000000 NULL
12
Lattice="4.101921781433794 0.0 0.0 0.0 8.42650040464997 0.0 0.0 0.0 9.738295992951297" Properties=species:S:1:pos:R:3:initial_magmoms:R:1:castep_labels:S:1 n_minim_iter=4 pbc="T T T"
P        3.99594829       1.15589758       6.37585472       0.00000000 NULL
P        3.99594829       7.27060283       3.36244127       0.00000000 NULL
P        3.99594829       1.15589758       3.36244127       0.00000000 NULL
P        3.99594829       7.27060283       6.37585472       0.00000000 NULL
P        1.04665859       3.04408232       5.94365349       0.00000000 NULL
P        1.04665859       5.38241809       3.79464250       0.00000000 NULL
P        1.04665859       3.04408232       3.79464250       0.00000000 NULL
P        1.04665859       5.38241809       5.94365349       0.00000000 NULL
P        2.94909801       5.36112887       6.99512519       0.00000000 NULL
P        2.94909801       3.06537154       2.74317080       0.00000000 NULL
P        2.94909801       5.36112887       2.74317080       0.00000000 NULL
P        2.94909801       3.06537154       6.99512519       0.00000000 NULL
12
Lattice="4.133391606901335 0.0 0.0 0.0 8.580724999194487 0.0 0.0 0.0 9.843634915340827" Properties=species:S:1:pos:R:3:initial_magmoms:R:1:castep_labels:S:1 n_minim_iter=5 pbc="T T T"
P        4.02634001       1.17801331       6.44373558       0.00000000 NULL
P        4.02634001       7.40271169       3.39989933       0.00000000 NULL
P        4.02634001       1.17801331       3.39989933       0.00000000 NULL
P        4.02634001       7.40271169       6.44373558       0.00000000 NULL
P        1.05425973       3.09892894       6.00914638       0.00000000 NULL
P        1.05425973       5.48179606       3.83448854       0.00000000 NULL
P        1.05425973       3.09892894       3.83448854       0.00000000 NULL
P        1.05425973       5.48179606       6.00914638       0.00000000 NULL
P        2.97241728       5.46076335       7.07237129       0.00000000 NULL
P        2.97241728       3.11996165       2.77126363       0.00000000 NULL
P        2.97241728       5.46076335       2.77126363       0.00000000 NULL
P        2.97241728       3.11996165       7.07237129       0.00000000 NULL
12
Lattice="4.1269611411271585 0.0 0.0 0.0 8.599750512170882 0.0 0.0 0.0 9.899549534354572" Properties=species:S:1:pos:R:3:initial_magmoms:R:1:castep_labels:S:1 n_minim_iter=6 pbc="T T T"
P        4.01980681       1.18297311       6.47901368       0.00000000 NULL
P        4.01980681       7.41677740       3.42053585       0.00000000 NULL
P        4.01980681       1.18297311       3.42053585       0.00000000 NULL
P        4.01980681       7.41677740       6.47901368       0.00000000 NULL
P        1.05196756       3.10486769       6.04421696       0.00000000 NULL
P        1.05196756       5.49488282       3.85533257       0.00000000 NULL
P        1.05196756       3.10486769       3.85533257       0.00000000 NULL
P        1.05196756       5.49488282       6.04421696       0.00000000 NULL
P        2.96871428       5.47445561       7.11375721       0.00000000 NULL
P        2.96871428       3.12529491       2.78579233       0.00000000 NULL
P        2.96871428       5.47445561       2.78579233       0.00000000 NULL
P        2.96871428       3.12529491       7.11375721       0.00000000 NULL
12
Lattice="4.10899952996776 0.0 0.0 0.0 8.608701730634326 0.0 0.0 0.0 9.978024017850231" Properties=species:S:1:pos:R:3:initial_magmoms:R:1:castep_labels:S:1 n_minim_iter=7 pbc="T T T"
P        4.00185279       1.18833856       6.52825704       0.00000000 NULL
P        4.00185279       7.42036317       3.44976698       0.00000000 NULL
P        4.00185279       1.18833856       3.44976698       0.00000000 NULL
P        4.00185279       7.42036317       6.52825704       0.00000000 NULL
P        1.04625432       3.10663135       6.09310258       0.00000000 NULL
P        1.04625432       5.50207038       3.88492143       0.00000000 NULL
P        1.04625432       3.10663135       3.88492143       0.00000000 NULL
P        1.04625432       5.50207038       6.09310258       0.00000000 NULL
P        2.95738723       5.48283388       7.17220460       0.00000000 NULL
P        2.95738723       3.12586785       2.80581942       0.00000000 NULL
P        2.95738723       5.48283388       2.80581942       0.00000000 NULL
P        2.95738723       3.12586785       7.17220460       0.00000000 NULL
12
Lattice="4.054671148036563 0.0 0.0 0.0 8.640838465721089 0.0 0.0 0.0 10.182315737866773" Properties=species:S:1:pos:R:3:initial_magmoms:R:1:castep_labels:S:1 n_minim_iter=8 pbc="T T T"
P        3.94758370       1.20458616       6.65640648       0.00000000 NULL
P        3.94758370       7.43625231       3.52590925       0.00000000 NULL
P        3.94758370       1.20458616       3.52590925       0.00000000 NULL
P        3.94758370       7.43625231       6.65640648       0.00000000 NULL
P        1.02909694       3.11453348       6.21814584       0.00000000 NULL
P        1.02909694       5.52630499       3.96416990       0.00000000 NULL
P        1.02909694       3.11453348       3.96416990       0.00000000 NULL
P        1.02909694       5.52630499       6.21814584       0.00000000 NULL
P        2.92296663       5.51111284       7.32554173       0.00000000 NULL
P        2.92296663       3.12972562       2.85677401       0.00000000 NULL
P        2.92296663       5.51111284       2.85677401       0.00000000 NULL
P        2.92296663       3.12972562       7.32554173       0.00000000 NULL
12
Lattice="4.0085307007128295 0.0 0.0 0.0 8.693416244468162 0.0 0.0 0.0 10.324975751051634" Properties=species:S:1:pos:R:3:initial_magmoms:R:1:castep_labels:S:1 n_minim_iter=9 pbc="T T T"
P        3.90142592       1.22147011       6.74650481       0.00000000 NULL
P        3.90142592       7.47194614       3.57847094       0.00000000 NULL
P        3.90142592       1.22147011       3.57847094       0.00000000 NULL
P        3.90142592       7.47194614       6.74650481       0.00000000 NULL
P        1.01437756       3.13170589       6.30086189       0.00000000 NULL
P        1.01437756       5.56171035       4.02411386       0.00000000 NULL
P        1.01437756       3.13170589       4.02411386       0.00000000 NULL
P        1.01437756       5.56171035       6.30086189       0.00000000 NULL
P        2.89394914       5.55105054       7.43452446       0.00000000 NULL
P        2.89394914       3.14236571       2.89045130       0.00000000 NULL
P        2.89394914       5.55105054       2.89045130       0.00000000 NULL
P        2.89394914       3.14236571       7.43452446       0.00000000 NULL
12
Lattice="3.962981579914611 0.0 0.0 0.0 8.706870142270748 0.0 0.0 0.0 10.454536399156408" Properties=species:S:1:pos:R:3:initial_magmoms:R:1:castep_labels:S:1 n_minim_iter=10 pbc="T T T"
P        3.85607543       1.23174482       6.82925220       0.00000000 NULL
P        3.85607543       7.47512532       3.62528420       0.00000000 NULL
P        3.85607543       1.23174482       3.62528420       0.00000000 NULL
P        3.85607543       7.47512532       6.82925220       0.00000000 NULL
P        1.00004988       3.13578764       6.37461683       0.00000000 NULL
P        1.00004988       5.57108250       4.07991957       0.00000000 NULL
P        1.00004988       3.13578764       4.07991957       0.00000000 NULL
P        1.00004988       5.57108250       6.37461683       0.00000000 NULL
P        2.86488472       5.56484386       7.53353688       0.00000000 NULL
P        2.86488472       3.14202628       2.92099951       0.00000000 NULL
P        2.86488472       5.56484386       2.92099951       0.00000000 NULL
P        2.86488472       3.14202628       7.53353688       0.00000000 NULL
12
Lattice="3.9298433562030963 0.0 0.0 0.0 8.803873411053551 0.0 0.0 0.0 10.627124933482248" Properties=species:S:1:pos:R:3:initial_magmoms:R:1:castep_labels:S:1 n_minim_iter=11 pbc="T T T"
P        3.82280626       1.25304681       6.94077819       0.00000000 NULL
P        3.82280626       7.55082660       3.68634675       0.00000000 NULL
P        3.82280626       1.25304681       3.68634675       0.00000000 NULL
P        3.82280626       7.55082660       6.94077819       0.00000000 NULL
P        0.98898151       3.17069234       6.47316986       0.00000000 NULL
P        0.98898151       5.63318107       4.15395507       0.00000000 NULL
P        0.98898151       3.17069234       4.15395507       0.00000000 NULL
P        0.98898151       5.63318107       6.47316986       0.00000000 NULL
P        2.84465962       5.63197956       7.66437561       0.00000000 NULL
P        2.84465962       3.17189385       2.96274933       0.00000000 NULL
P        2.84465962       5.63197956       2.96274933       0.00000000 NULL
P        2.84465962       3.17189385       7.66437561       0.00000000 NULL
12
Lattice="3.919283939578649 0.0 0.0 0.0 8.793349399369609 0.0 0.0 0.0 10.646872528187883" Properties=species:S:1:pos:R:3:initial_magmoms:R:1:castep_labels:S:1 n_minim_iter=12 pbc="T T T"
P        3.81241996       1.25280433       6.95360096       0.00000000 NULL
P        3.81241996       7.54054507       3.69327157       0.00000000 NULL
P        3.81241996       1.25280433       3.69327157       0.00000000 NULL
P        3.81241996       7.54054507       6.95360096       0.00000000 NULL
P        0.98592462       3.16688900       6.48432289       0.00000000 NULL
P        0.98592462       5.62646040       4.16254964       0.00000000 NULL
P        0.98592462       3.16688900       4.16254964       0.00000000 NULL
P        0.98592462       5.62646040       6.48432289       0.00000000 NULL
P        2.83753009       5.62593191       7.67936234       0.00000000 NULL
P        2.83753009       3.16741749       2.96751019       0.00000000 NULL
P        2.83753009       5.62593191       2.96751019       0.00000000 NULL
P        2.83753009       3.16741749       7.67936234       0.00000000 NULL
12
Lattice="3.900985944581927 0.0 0.0 0.0 8.785999305185932 0.0 0.0 0.0 10.692133403825085" Properties=species:S:1:pos:R:3:initial_magmoms:R:1:castep_labels:S:1 n_minim_iter=13 pbc="T T T"
P        3.79438478       1.25413885       6.98303275       0.00000000 NULL
P        3.79438478       7.53186045       3.70910065       0.00000000 NULL
P        3.79438478       1.25413885       3.70910065       0.00000000 NULL
P        3.79438478       7.53186045       6.98303275       0.00000000 NULL
P        0.98053219       3.16426953       6.51001953       0.00000000 NULL
P        0.98053219       5.62172977       4.18211387       0.00000000 NULL
P        0.98053219       3.16426953       4.18211387       0.00000000 NULL
P        0.98053219       5.62172977       6.51001953       0.00000000 NULL
P        2.82530802       5.62260634       7.71361650       0.00000000 NULL
P        2.82530802       3.16339296       2.97851690       0.00000000 NULL
P        2.82530802       5.62260634       2.97851690       0.00000000 NULL
P        2.82530802       3.16339296       7.71361650       0.00000000 NULL
12
Lattice="3.891263362759866 0.0 0.0 0.0 8.792443936889315 0.0 0.0 0.0 10.72686956515002" Properties=species:S:1:pos:R:3:initial_magmoms:R:1:castep_labels:S:1 n_minim_iter=14 pbc="T T T"
P        3.78476969       1.25650055       7.00566249       0.00000000 NULL
P        3.78476969       7.53594339       3.72120708       0.00000000 NULL
P        3.78476969       1.25650055       3.72120708       0.00000000 NULL
P        3.78476969       7.53594339       7.00566249       0.00000000 NULL
P        0.97758128       3.16665908       6.52985105       0.00000000 NULL
P        0.97758128       5.62578486       4.19701852       0.00000000 NULL
P        0.97758128       3.16665908       4.19701852       0.00000000 NULL
P        0.97758128       5.62578486       6.52985105       0.00000000 NULL
P        2.81893167       5.62763189       7.73982201       0.00000000 NULL
P        2.81893167       3.16481205       2.98704756       0.00000000 NULL
P        2.81893167       5.62763189       2.98704756       0.00000000 NULL
P        2.81893167       3.16481205       7.73982201       0.00000000 NULL
12
Lattice="3.8339000547571804 0.0 0.0 0.0 8.837989417649569 0.0 0.0 0.0 10.945723904300348" Properties=species:S:1:pos:R:3:initial_magmoms:R:1:castep_labels:S:1 n_minim_iter=15 pbc="T T T"
P        3.72805480       1.27159155       7.14835758       0.00000000 NULL
P        3.72805480       7.56639787       3.79736632       0.00000000 NULL
P        3.72805480       1.27159155       3.79736632       0.00000000 NULL
P        3.72805480       7.56639787       7.14835758       0.00000000 NULL
P        0.96017898       3.18355091       6.65490480       0.00000000 NULL
P        0.96017898       5.65443851       4.29081910       0.00000000 NULL
P        0.96017898       3.18355091       4.29081910       0.00000000 NULL
P        0.96017898       5.65443851       6.65490480       0.00000000 NULL
P        2.78128891       5.66220276       7.90482224       0.00000000 NULL
P        2.78128891       3.17578666       3.04090166       0.00000000 NULL
P        2.78128891       5.66220276       3.04090166       0.00000000 NULL
P        2.78128891       3.17578666       7.90482224       0.00000000 NULL
12
Lattice="3.773633669419999 0.0 0.0 0.0 8.911681193089693 0.0 0.0 0.0 11.232027215732465" Properties=species:S:1:pos:R:3:initial_magmoms:R:1:castep_labels:S:1 n_minim_iter=16 pbc="T T T"
P        3.66859313       1.29086908       7.33554373       0.00000000 NULL
P        3.66859313       7.62081211       3.89648348       0.00000000 NULL
P        3.66859313       1.29086908       3.89648348       0.00000000 NULL
P        3.66859313       7.62081211       7.33554373       0.00000000 NULL
P        0.94203942       3.21093712       6.81998857       0.00000000 NULL
P        0.94203942       5.70074407       4.41203864       0.00000000 NULL
P        0.94203942       3.21093712       4.41203864       0.00000000 NULL
P        0.94203942       5.70074407       6.81998857       0.00000000 NULL
P        2.74147415       5.71509340       8.11962113       0.00000000 NULL
P        2.74147415       3.19658779       3.11240608       0.00000000 NULL
P        2.74147415       5.71509340       3.11240608       0.00000000 NULL
P        2.74147415       3.19658779       8.11962113       0.00000000 NULL
12
Lattice="3.6922900537553125 0.0 0.0 0.0 8.948079332948396 0.0 0.0 0.0 11.584138235568092" Properties=species:S:1:pos:R:3:initial_magmoms:R:1:castep_labels:S:1 n_minim_iter=17 pbc="T T T"
P        3.58876335       1.30600203       7.56590363       0.00000000 NULL
P        3.58876335       7.64207730       4.01823461       0.00000000 NULL
P        3.58876335       1.30600203       4.01823461       0.00000000 NULL
P        3.58876335       7.64207730       7.56590363       0.00000000 NULL
P        0.91853378       3.22476817       7.02502493       0.00000000 NULL
P        0.91853378       5.72331116       4.55911331       0.00000000 NULL
P        0.91853378       3.22476817       4.55911331       0.00000000 NULL
P        0.91853378       5.72331116       7.02502493       0.00000000 NULL
P        2.68632918       5.74460282       8.38278611       0.00000000 NULL
P        2.68632918       3.20347651       3.20135212       0.00000000 NULL
P        2.68632918       5.74460282       3.20135212       0.00000000 NULL
P        2.68632918       3.20347651       8.38278611       0.00000000 NULL
12
Lattice="3.6272557659974063 0.0 0.0 0.0 9.119839552075533 0.0 0.0 0.0 11.988930567612835" Properties=species:S:1:pos:R:3:initial_magmoms:R:1:castep_labels:S:1 n_minim_iter=18 pbc="T T T"
P        3.52483300       1.34019415       7.83037665       0.00000000 NULL
P        3.52483300       7.77964540       4.15855391       0.00000000 NULL
P        3.52483300       1.34019415       4.15855391       0.00000000 NULL
P        3.52483300       7.77964540       7.83037665       0.00000000 NULL
P        0.89935034       3.28752983       7.26264072       0.00000000 NULL
P        0.89935034       5.83230972       4.72628985       0.00000000 NULL
P        0.89935034       3.28752983       4.72628985       0.00000000 NULL
P        0.89935034       5.83230972       7.26264072       0.00000000 NULL
P        2.64273777       5.86128397       8.68476769       0.00000000 NULL
P        2.64273777       3.25855558       3.30416287       0.00000000 NULL
P        2.64273777       5.86128397       3.30416287       0.00000000 NULL
P        2.64273777       3.25855558       8.68476769       0.00000000 NULL
12
Lattice="3.571940992837132 0.0 0.0 0.0 9.065944373858564 0.0 0.0 0.0 12.107165854435534" Properties=species:S:1:pos:R:3:initial_magmoms:R:1:castep_labels:S:1 n_minim_iter=19 pbc="T T T"
P        3.47080680       1.33862671       7.90739484       0.00000000 NULL
P        3.47080680       7.72731767       4.19977101       0.00000000 NULL
P        3.47080680       1.33862671       4.19977101       0.00000000 NULL
P        3.47080680       7.72731767       7.90739484       0.00000000 NULL
P        0.88396239       3.26782586       7.33290995       0.00000000 NULL
P        0.88396239       5.79811852       4.77425590       0.00000000 NULL
P        0.88396239       3.26782586       4.77425590       0.00000000 NULL
P        0.88396239       5.79811852       7.33290995       0.00000000 NULL
P        2.60438310       5.82998401       8.77274234       0.00000000 NULL
P        2.60438310       3.23596036       3.33442351       0.00000000 NULL
P        2.60438310       5.82998401       3.33442351       0.00000000 NULL
P        2.60438310       3.23596036       8.77274234       0.00000000 NULL
12
Lattice="3.5522952103186793 0.0 0.0 0.0 9.127812315376408 0.0 0.0 0.0 12.213985352562178" Properties=species:S:1:pos:R:3:initial_magmoms:R:1:castep_labels:S:1 n_minim_iter=20 pbc="T T T"
P        3.45140744       1.35139569       7.97681788       0.00000000 NULL
P        3.45140744       7.77641662       4.23716747       0.00000000 NULL
P        3.45140744       1.35139569       4.23716747       0.00000000 NULL
P        3.45140744       7.77641662       7.97681788       0.00000000 NULL
P        0.87802102       3.29027173       7.39634674       0.00000000 NULL
P        0.87802102       5.83754059       4.81763861       0.00000000 NULL
P        0.87802102       3.29027173       4.81763861       0.00000000 NULL
P        0.87802102       5.83754059       7.39634674       0.00000000 NULL
P        2.59144827       5.87214346       8.85236429       0.00000000 NULL
P        2.59144827       3.25566886       3.36162106       0.00000000 NULL
P        2.59144827       5.87214346       3.36162106       0.00000000 NULL
P        2.59144827       3.25566886       8.85236429       0.00000000 NULL
12
Lattice="3.5221958512742617 0.0 0.0 0.0 9.154651758904393 0.0 0.0 0.0 12.31476654613869" Properties=species:S:1:pos:R:3:initial_magmoms:R:1:castep_labels:S:1 n_minim_iter=21 pbc="T T T"
P        3.42180394       1.36041883       8.04222329       0.00000000 NULL
P        3.42180394       7.79423293       4.27254326       0.00000000 NULL
P        3.42180394       1.36041883       4.27254326       0.00000000 NULL
P        3.42180394       7.79423293       8.04222329       0.00000000 NULL
P        0.86922600       3.29994222       7.45652773       0.00000000 NULL
P        0.86922600       5.85470954       4.85823882       0.00000000 NULL
P        0.86922600       3.29994222       4.85823882       0.00000000 NULL
P        0.86922600       5.85470954       7.45652773       0.00000000 NULL
P        2.57120473       5.89232470       8.92740270       0.00000000 NULL
P        2.57120473       3.26232706       3.38736384       0.00000000 NULL
P        2.57120473       5.89232470       3.38736384       0.00000000 NULL
P        2.57120473       3.26232706       8.92740270       0.00000000 NULL
12
Lattice="3.394018151183647 0.0 0.0 0.0 9.328680934181344 0.0 0.0 0.0 12.77913900067078" Properties=species:S:1:pos:R:3:initial_magmoms:R:1:castep_labels:S:1 n_minim_iter=22 pbc="T T T"
P        3.29544362       1.41164472       8.34319643       0.00000000 NULL
P        3.29544362       7.91703621       4.43594257       0.00000000 NULL
P        3.29544362       1.41164472       4.43594257       0.00000000 NULL
P        3.29544362       7.91703621       8.34319643       0.00000000 NULL
P        0.83124302       3.36272179       7.73514091       0.00000000 NULL
P        0.83124302       5.96595915       5.04399809       0.00000000 NULL
P        0.83124302       3.36272179       5.04399809       0.00000000 NULL
P        0.83124302       5.96595915       7.73514091       0.00000000 NULL
P        2.48582157       6.01881943       9.27294168       0.00000000 NULL
P        2.48582157       3.30986150       3.50619732       0.00000000 NULL
P        2.48582157       6.01881943       3.50619732       0.00000000 NULL
P        2.48582157       3.30986150       9.27294168       0.00000000 NULL
12
Lattice="3.2795025630530286 0.0 0.0 0.0 9.512598307968592 0.0 0.0 0.0 13.086200058439143" Properties=species:S:1:pos:R:3:initial_magmoms:R:1:castep_labels:S:1 n_minim_iter=23 pbc="T T T"
P        3.18138143       1.47909220       8.54173693       0.00000000 NULL
P        3.18138143       8.03350610       4.54446312       0.00000000 NULL
P        3.18138143       1.47909220       4.54446312       0.00000000 NULL
P        3.18138143       8.03350610       8.54173693       0.00000000 NULL
P        0.79519179       3.42775074       7.93221996       0.00000000 NULL
P        0.79519179       6.08484757       5.15398010       0.00000000 NULL
P        0.79519179       3.42775074       5.15398010       0.00000000 NULL
P        0.79519179       6.08484757       7.93221996       0.00000000 NULL
P        2.41282623       6.15704523       9.49585106       0.00000000 NULL
P        2.41282623       3.35555308       3.59034900       0.00000000 NULL
P        2.41282623       6.15704523       3.59034900       0.00000000 NULL
P        2.41282623       3.35555308       9.49585106       0.00000000 NULL
12
Lattice="3.312756436615371 0.0 0.0 0.0 9.690235868044187 0.0 0.0 0.0 13.286391201209268" Properties=species:S:1:pos:R:3:initial_magmoms:R:1:castep_labels:S:1 n_minim_iter=24 pbc="T T T"
P        3.21277593       1.51396187       8.67228797       0.00000000 NULL
P        3.21277593       8.17627400       4.61410323       0.00000000 NULL
P        3.21277593       1.51396187       4.61410323       0.00000000 NULL
P        3.21277593       8.17627400       8.67228797       0.00000000 NULL
P        0.80171869       3.49250701       8.05641921       0.00000000 NULL
P        0.80171869       6.19772886       5.22997199       0.00000000 NULL
P        0.80171869       3.49250701       5.22997199       0.00000000 NULL
P        0.80171869       6.19772886       8.05641921       0.00000000 NULL
P        2.43969279       6.27569608       9.64246669       0.00000000 NULL
P        2.43969279       3.41453979       3.64392451       0.00000000 NULL
P        2.43969279       6.27569608       3.64392451       0.00000000 NULL
P        2.43969279       3.41453979       9.64246669       0.00000000 NULL
12
Lattice="3.2906215788103133 0.0 0.0 0.0 9.598391510093267 0.0 0.0 0.0 13.267266733602993" Properties=species:S:1:pos:R:3:initial_magmoms:R:1:castep_labels:S:1 n_minim_iter=25 pbc="T T T"
P        3.19104818       1.50439146       8.66006551       0.00000000 NULL
P        3.19104818       8.09400005       4.60720122       0.00000000 NULL
P        3.19104818       1.50439146       4.60720122       0.00000000 NULL
P        3.19104818       8.09400005       8.66006551       0.00000000 NULL
P        0.79552949       3.45864692       8.04795698       0.00000000 NULL
P        0.79552949       6.13974459       5.21930976       0.00000000 NULL
P        0.79552949       3.45864692       5.21930976       0.00000000 NULL
P        0.79552949       6.13974459       8.04795698       0.00000000 NULL
P        2.42448478       6.21840237       9.62668707       0.00000000 NULL
P        2.42448478       3.37998914       3.64057966       0.00000000 NULL
P        2.42448478       6.21840237       3.64057966       0.00000000 NULL
P        2.42448478       3.37998914       9.62668707       0.00000000 NULL
