5
Lattice="3.513539999999997 -2.079826440828283e-15 1.2948922680403252e-15 0.8637448644690685 4.430897121250198 -2.399141773333527e-15 0.8273099058015191 1.7292184323714432 7.251362778437547" Properties=species:S:1:pos:R:3:initial_magmoms:R:1:castep_labels:S:1 n_minim_iter=1 pbc="T T T"
P        2.88866167       1.72615971       0.93409155       0.00000000 NULL
P        1.28368478       2.60038851       1.83359845       0.00000000 NULL
P        3.65448990       2.00459591       4.01688516       0.00000000 NULL
P        2.88528772       4.75642626       3.57551791       0.00000000 NULL
P        1.99476461       2.75757353       4.87630000       0.00000000 NULL
5
Lattice="3.5140832296239406 -0.0012372405931045242 -0.0002440568098359356 0.8623181341673324 4.4306662969929675 0.0013372063556927366 0.8263252053408622 1.7312423125120817 7.254343247068607" Properties=species:S:1:pos:R:3:initial_magmoms:R:1:castep_labels:S:1 n_minim_iter=2 pbc="T T T"
P        2.88859564       1.72535257       0.93467499       0.00000000 NULL
P        1.28262978       2.60066191       1.83498909       0.00000000 NULL
P        3.65430733       2.00435531       4.01848495       0.00000000 NULL
P        2.88371366       4.75660907       3.57799056       0.00000000 NULL
P        1.99367318       2.75872418       4.87897417       0.00000000 NULL
5
Lattice="3.5404654413629726 -0.0631197363120548 -0.012449359115308277 0.7907642391685723 4.419788912091594 0.06895751248967971 0.7768915395886078 1.8339372776267129 7.40507659595135" Properties=species:S:1:pos:R:3:initial_magmoms:R:1:castep_labels:S:1 n_minim_iter=3 pbc="T T T"
P        2.88476001       1.68521195       0.96417627       0.00000000 NULL
P        1.22944811       2.61521475       1.90543709       0.00000000 NULL
P        3.64463777       1.99293891       4.09922460       0.00000000 NULL
P        2.80428699       4.76710082       3.70307678       0.00000000 NULL
P        1.93842256       2.81782379       5.01457139       0.00000000 NULL
5
Lattice="3.4941924435696854 -0.10198527155814999 0.008256468405714437 0.7303757840932559 4.383474117618772 0.13819598238594763 0.789601330171791 1.9193238387889084 7.5162964481339944" Properties=species:S:1:pos:R:3:initial_magmoms:R:1:castep_labels:S:1 n_minim_iter=4 pbc="T T T"
P        2.83786921       1.65214349       1.01488699       0.00000000 NULL
P        1.18697443       2.61528523       1.97123581       0.00000000 NULL
P        3.60652191       1.98625107       4.18725502       0.00000000 NULL
P        2.72845936       4.75775615       3.82526905       0.00000000 NULL
P        1.91102229       2.86326239       5.13401180       0.00000000 NULL
5
Lattice="3.3659200129706632 -0.18008057388691626 0.08738482361497904 0.6003567994069923 4.32139733914723 0.32891973580742045 0.8842703878569508 2.1644947107069967 7.8015905206889355" Properties=species:S:1:pos:R:3:initial_magmoms:R:1:castep_labels:S:1 n_minim_iter=5 pbc="T T T"
P        2.72493160       1.59632889       1.16981255       0.00000000 NULL
P        1.10647362       2.64205310       2.14988154       0.00000000 NULL
P        3.53858434       2.00828211       4.43757070       0.00000000 NULL
P        2.57950231       4.78236344       4.15843855       0.00000000 NULL
P        1.89285486       3.01819984       5.45815513       0.00000000 NULL
5
Lattice="3.2220348999725568 -0.24639712717758522 0.2560070002981658 0.4813537846433861 4.345846796468327 0.5542515105315575 1.1657606199355133 2.465709734320137 8.068085118707208" Properties=species:S:1:pos:R:3:initial_magmoms:R:1:castep_labels:S:1 n_minim_iter=6 pbc="T T T"
P        2.63100939       1.58057440       1.41264494       0.00000000 NULL
P        1.07012605       2.73951172       2.34963062       0.00000000 NULL
P        3.57267029       2.07237889       4.75839369       0.00000000 NULL
P        2.50670440       4.90986826       4.52593228       0.00000000 NULL
P        2.01137447       3.26469360       5.83739346       0.00000000 NULL
5
Lattice="3.2895674387086262 -0.3137677920824372 0.28483081125780774 0.41299492102840607 4.357496125580888 0.43623810902627097 1.2079925719358195 2.256125687643199 7.8668784028548595" Properties=species:S:1:pos:R:3:initial_magmoms:R:1:castep_labels:S:1 n_minim_iter=7 pbc="T T T"
P        2.67439737       1.50124884       1.39307702       0.00000000 NULL
P        1.04017452       2.70592791       2.22855563       0.00000000 NULL
P        3.65895949       1.87547338       4.65218705       0.00000000 NULL
P        2.48413697       4.79067943       4.30603659       0.00000000 NULL
P        2.03796995       3.10802426       5.68303768       0.00000000 NULL
5
Lattice="3.2676128370812765 -0.30862265252536214 0.33907218346901363 0.4140862447773277 4.357474266907407 0.4208128625593294 1.3173004717345096 2.20976868024086 7.7600198515578" Properties=species:S:1:pos:R:3:initial_magmoms:R:1:castep_labels:S:1 n_minim_iter=8 pbc="T T T"
P        2.67411944       1.49382357       1.42298860       0.00000000 NULL
P        1.05930980       2.70891803       2.19833940       0.00000000 NULL
P        3.70752419       1.84332333       4.64026812       0.00000000 NULL
P        2.52131244       4.76794614       4.25206682       0.00000000 NULL
P        2.10946361       3.08303512       5.62775168       0.00000000 NULL
5
Lattice="3.280199793257901 -0.32354554244850803 0.3649334817531657 0.39836139996430336 4.383604369276262 0.408769484435621 1.3662932348706138 2.1877702420091505 7.700458139994822" Properties=species:S:1:pos:R:3:initial_magmoms:R:1:castep_labels:S:1 n_minim_iter=9 pbc="T T T"
P        2.68668859       1.48242404       1.43631166       0.00000000 NULL
P        1.05996408       2.72781711       2.17736864       0.00000000 NULL
P        3.74875968       1.81434256       4.63088597       0.00000000 NULL
P        2.53349758       4.77048262       4.21394198       0.00000000 NULL
P        2.14168406       3.07784703       5.59608240       0.00000000 NULL
5
Lattice="3.2800347047888017 -0.339744670701848 0.40206087031825716 0.3778922249835574 4.404903157653101 0.3859476340707081 1.4349065857963668 2.1415362550899717 7.585786356825807" Properties=species:S:1:pos:R:3:initial_magmoms:R:1:castep_labels:S:1 n_minim_iter=10 pbc="T T T"
P        2.69152014       1.46216587       1.45103116       0.00000000 NULL
P        1.05866591       2.74526065       2.13618260       0.00000000 NULL
P        3.79160972       1.76502658       4.60150568       0.00000000 NULL
P        2.54378366       4.75509536       4.13983531       0.00000000 NULL
P        2.18158680       3.05591323       5.52736260       0.00000000 NULL
5
Lattice="3.30367491688702 -0.37966539265637994 0.5144798876678032 0.3333600721713598 4.492335029435379 0.31801716428947197 1.6528398415452026 2.013688489292779 7.280855300783714" Properties=species:S:1:pos:R:3:initial_magmoms:R:1:castep_labels:S:1 n_minim_iter=11 pbc="T T T"
P        2.72962066       1.40671337       1.50279531       0.00000000 NULL
P        1.06779779       2.83236615       2.01720513       0.00000000 NULL
P        3.95754367       1.62627676       4.54560572       0.00000000 NULL
P        2.60533355       4.73537651       3.92952813       0.00000000 NULL
P        2.32256115       3.01359289       5.35076873       0.00000000 NULL
5
Lattice="3.2154088112509567 -0.3282897632470477 0.4391938844672146 0.37645072518865624 4.328726994615441 0.3026730925200703 1.5019635573600174 1.9621839035566921 7.272676392038529" Properties=species:S:1:pos:R:3:initial_magmoms:R:1:castep_labels:S:1 n_minim_iter=12 pbc="T T T"
P        2.64959232       1.37472876       1.45400702       0.00000000 NULL
P        1.04499929       2.76800452       1.98726050       0.00000000 NULL
P        3.81256175       1.59479529       4.48872594       0.00000000 NULL
P        2.53025512       4.58265887       3.84689824       0.00000000 NULL
P        2.20219972       2.94013240       5.32408956       0.00000000 NULL
5
Lattice="3.306741704458209 -0.3405206295210433 0.463728879746783 0.38347913736014794 4.4086636578349845 0.32483125849953964 1.5680857359634817 2.018065777480425 7.373190600794208" Properties=species:S:1:pos:R:3:initial_magmoms:R:1:castep_labels:S:1 n_minim_iter=13 pbc="T T T"
P        2.72420141       1.39268055       1.49109387       0.00000000 NULL
P        1.07784226       2.83399184       2.02866552       0.00000000 NULL
P        3.93521768       1.62671992       4.57256821       0.00000000 NULL
P        2.61093831       4.66813361       3.91705071       0.00000000 NULL
P        2.27991805       3.00918641       5.41656095       0.00000000 NULL
5
Lattice="3.279476012021244 -0.34109709087157586 0.4606641921315884 0.3760493535076208 4.374814066340949 0.31421178287019086 1.5550569482636383 1.9886288057817332 7.309068741939311" Properties=species:S:1:pos:R:3:initial_magmoms:R:1:castep_labels:S:1 n_minim_iter=14 pbc="T T T"
P        2.69928147       1.37753598       1.47901123       0.00000000 NULL
P        1.06633975       2.81090270       2.00720367       0.00000000 NULL
P        3.90294960       1.60178892       4.53254166       0.00000000 NULL
P        2.58625664       4.62312126       3.87265298       0.00000000 NULL
P        2.25912102       2.97602610       5.36749302       0.00000000 NULL
