10
Lattice="5.460169999999935 -8.46861231498704e-07 3.485244498521197e-31 -2.730084013680966 6.359329697390521 3.310996969265135e-16 -4.324586331011229e-07 -2.788293485251301 6.59750802883217" Properties=species:S:1:pos:R:3:initial_magmoms:R:1:castep_labels:S:1 n_minim_iter=1 pbc="T T T"
P        1.97519671      -0.84717980       4.44356416       0.00000000 NULL
P       -0.75488747       4.41821539       2.15394387       0.00000000 NULL
P        0.41229337       0.17011667       5.31024383       0.00000000 NULL
P        3.14237887       3.40091856       1.28726420       0.00000000 NULL
P        0.59088622       3.53297740       0.94197702       0.00000000 NULL
P        3.32097068       0.03805778       5.65553101       0.00000000 NULL
P        4.39690887      -0.30217752       3.98013343       0.00000000 NULL
P        1.66682452       3.87321236       2.61737460       0.00000000 NULL
P       -1.24802257       1.96506363       3.43383469       0.00000000 NULL
P        1.48206238       1.60597211       3.16367334       0.00000000 NULL
10
Lattice="5.4716453625132 -8.48641036816398e-07 -1.5581550571268643e-19 -2.7358216942651463 6.363665360776356 0.005620024683822638 -4.3184917386095913e-07 -2.7843639735991172 6.610109128334628" Properties=species:S:1:pos:R:3:initial_magmoms:R:1:castep_labels:S:1 n_minim_iter=2 pbc="T T T"
P        1.97924147      -0.84403838       4.45289121       0.00000000 NULL
P       -0.75658039       4.42333914       2.16283794       0.00000000 NULL
P        0.41323497       0.17507306       5.32267589       0.00000000 NULL
P        3.14905815       3.40422735       1.29305326       0.00000000 NULL
P        0.59212809       3.53609476       0.94695334       0.00000000 NULL
P        3.32795023       0.04320559       5.66877581       0.00000000 NULL
P        4.40619811      -0.29877192       3.98859823       0.00000000 NULL
P        1.67037608       3.87807193       2.62713093       0.00000000 NULL
P       -1.25066268       1.96935868       3.44340861       0.00000000 NULL
P        1.48515994       1.60994224       3.17232055       0.00000000 NULL
10
Lattice="5.791756945578305 -8.982896905399116e-07 1.54930359583056e-16 -2.895877467249145 6.4832578849366795 0.16721940237716296 -4.139794625549199e-07 -2.66914833159693 6.966800886264749" Properties=species:S:1:pos:R:3:initial_magmoms:R:1:castep_labels:S:1 n_minim_iter=3 pbc="T T T"
P        2.09189685      -0.75282245       4.71726119       0.00000000 NULL
P       -0.80398080       4.56693135       2.41675910       0.00000000 NULL
P        0.43961492       0.31742478       5.67567183       0.00000000 NULL
P        3.33549388       3.49668374       1.45834846       0.00000000 NULL
P        0.62674883       3.62285350       1.08914362       0.00000000 NULL
P        3.52262678       0.19125496       6.04487667       0.00000000 NULL
P        4.66543595      -0.20074601       4.22860303       0.00000000 NULL
P        1.76955813       4.01485411       2.90541726       0.00000000 NULL
P       -1.32433554       2.09128369       3.71566572       0.00000000 NULL
P        1.57154287       1.72282537       3.41835457       0.00000000 NULL
10
Lattice="5.844417915128153 -9.064572995479424e-07 1.9839280867229115e-16 -2.92220795628853 6.455762614721426 0.2757886739191001 -3.9464013272613746e-07 -2.544457267378476 7.091911976980905" Properties=species:S:1:pos:R:3:initial_magmoms:R:1:castep_labels:S:1 n_minim_iter=4 pbc="T T T"
P        2.10788105      -0.67327499       4.82179879       0.00000000 NULL
P       -0.81432709       4.58457968       2.54590187       0.00000000 NULL
P        0.44555205       0.40874033       5.81640888       0.00000000 NULL
P        3.36776149       3.50256397       1.55129177       0.00000000 NULL
P        0.63186023       3.62332787       1.17386439       0.00000000 NULL
P        3.55406867       0.28797637       6.19383626       0.00000000 NULL
P        4.70957512      -0.12530861       4.32574011       0.00000000 NULL
P        1.78736681       4.03661249       3.04196054       0.00000000 NULL
P       -1.33641262       2.13852826       3.83767863       0.00000000 NULL
P        1.58579628       1.77277659       3.53002203       0.00000000 NULL
10
Lattice="5.822357210962075 -9.030357293038498e-07 2.0853184337140331e-16 -2.911177615554881 6.382586988218046 0.38955112966036304 -3.7135874575053304e-07 -2.3943496393728245 7.162309061133873" Properties=species:S:1:pos:R:3:initial_magmoms:R:1:castep_labels:S:1 n_minim_iter=5 pbc="T T T"
P        2.09644484      -0.58208071       4.89250712       0.00000000 NULL
P       -0.81473297       4.57031740       2.65935307       0.00000000 NULL
P        0.44601675       0.50242580       5.91259456       0.00000000 NULL
P        3.35719582       3.48581050       1.63926563       0.00000000 NULL
P        0.62858569       3.60065638       1.25798830       0.00000000 NULL
P        3.53976380       0.38757986       6.29387189       0.00000000 NULL
P        4.69395487      -0.04227762       4.39448991       0.00000000 NULL
P        1.78277689       4.03051351       3.15737028       0.00000000 NULL
P       -1.33130223       2.17415436       3.93313697       0.00000000 NULL
P        1.57987632       1.81408250       3.61872322       0.00000000 NULL
10
Lattice="5.726815222494575 -8.882173616907799e-07 1.3311121625495085e-16 -2.863406640008286 6.262100840130617 0.6433528619034132 -3.2232677582275026e-07 -2.0782141476074583 7.26236236051474" Properties=species:S:1:pos:R:3:initial_magmoms:R:1:castep_labels:S:1 n_minim_iter=6 pbc="T T T"
P        2.05426251      -0.38278989       5.01437040       0.00000000 NULL
P       -0.80914433       4.56667594       2.89134482       0.00000000 NULL
P        0.44328108       0.71153183       6.07789944       0.00000000 NULL
P        3.30668912       3.47235383       1.82781578       0.00000000 NULL
P        0.61627061       3.57668071       1.44479354       0.00000000 NULL
P        3.47967776       0.60720490       6.46092168       0.00000000 NULL
P        4.62254285       0.14096916       4.52021641       0.00000000 NULL
P        1.75913585       4.04291609       3.38549881       0.00000000 NULL
P       -1.30987178       2.26853083       4.11516985       0.00000000 NULL
P        1.55353578       1.91535538       3.79054538       0.00000000 NULL
10
Lattice="5.740547189287094 -8.903471617450941e-07 1.5243624723496244e-16 -2.8702726062409023 6.372764079730612 0.844988815168555 -2.9740767915225524e-07 -1.9175473241914203 7.263190743904504" Properties=species:S:1:pos:R:3:initial_magmoms:R:1:castep_labels:S:1 n_minim_iter=7 pbc="T T T"
P        2.05303565      -0.25162260       5.05895046       0.00000000 NULL
P       -0.81723718       4.70683871       3.04922910       0.00000000 NULL
P        0.44811384       0.88286572       6.14234804       0.00000000 NULL
P        3.31838785       3.57235000       1.96583151       0.00000000 NULL
P        0.61638770       3.67678110       1.59170148       0.00000000 NULL
P        3.48666085       0.77843456       6.51647808       0.00000000 NULL
P        4.64043511       0.27173325       4.57898203       0.00000000 NULL
P        1.77016212       4.18348206       3.52919753       0.00000000 NULL
P       -1.31607726       2.41440353       4.21860586       0.00000000 NULL
P        1.55419627       2.04081274       3.88957370       0.00000000 NULL
10
Lattice="5.7250947874867615 -8.879505257362356e-07 1.4417560606300514e-16 -2.862546405959024 6.368777639899674 0.8937092886233604 -2.8929712516630177e-07 -1.8652542188450778 7.193439980843907" Properties=species:S:1:pos:R:3:initial_magmoms:R:1:castep_labels:S:1 n_minim_iter=8 pbc="T T T"
P        2.04581670      -0.21475339       5.02320631       0.00000000 NULL
P       -0.81672992       4.71827617       3.06394296       0.00000000 NULL
P        0.44861472       0.92285814       6.09995987       0.00000000 NULL
P        3.31116253       3.58066425       1.98718940       0.00000000 NULL
P        0.61415079       3.68528660       1.61959504       0.00000000 NULL
P        3.47669774       0.81823573       6.46755423       0.00000000 NULL
P        4.62989004       0.30467399       4.55161669       0.00000000 NULL
P        1.76734325       4.19884799       3.53553258       0.00000000 NULL
P       -1.31391748       2.44049197       4.20724923       0.00000000 NULL
P        1.54862986       2.06303097       3.87990004       0.00000000 NULL
10
Lattice="5.738315134164764 -8.900009745441589e-07 1.3783154741096174e-16 -2.8691565776260757 6.37955760154892 0.9316287652377772 -2.839286976757168e-07 -1.830641078378388 7.164356669649186" Properties=species:S:1:pos:R:3:initial_magmoms:R:1:castep_labels:S:1 n_minim_iter=9 pbc="T T T"
P        2.04946477      -0.18856757       5.01150072       0.00000000 NULL
P       -0.81969203       4.73748345       3.08448472       0.00000000 NULL
P        0.45084510       0.95462786       6.08835391       0.00000000 NULL
P        3.32000307       3.59428763       2.00763153       0.00000000 NULL
P        0.61521689       3.69893206       1.64328568       0.00000000 NULL
P        3.48437402       0.84998338       6.45269975       0.00000000 NULL
P        4.64186201       0.32885720       4.54423997       0.00000000 NULL
P        1.77270504       4.22005788       3.55174547       0.00000000 NULL
P       -1.31799845       2.46517663       4.21189459       0.00000000 NULL
P        1.55115906       2.08373940       3.88409085       0.00000000 NULL
10
Lattice="5.79576417337833 -8.989112033733173e-07 1.9090588348168366e-16 -2.897881090655348 6.421966356262698 1.0890148219078122 -2.6148814982239483e-07 -1.6859547929535192 7.033623342928941" Properties=species:S:1:pos:R:3:initial_magmoms:R:1:castep_labels:S:1 n_minim_iter=10 pbc="T T T"
P        2.06556600      -0.07924345       4.95597292       0.00000000 NULL
P       -0.83231533       4.81525436       3.16666524       0.00000000 NULL
P        0.46062121       1.08599917       6.03227053       0.00000000 NULL
P        3.35850370       3.65001135       2.09036763       0.00000000 NULL
P        0.61989328       3.75465487       1.73987842       0.00000000 NULL
P        3.51777494       0.98135559       6.38275975       0.00000000 NULL
P        4.69363273       0.42893657       4.50698749       0.00000000 NULL
P        1.79575125       4.30707353       3.61565067       0.00000000 NULL
P       -1.33585499       2.56720613       4.22654874       0.00000000 NULL
P        1.56202703       2.16880494       3.89608942       0.00000000 NULL
10
Lattice="5.874689088468601 -9.11152296734273e-07 2.6359303760687227e-16 -2.937343542714154 6.457339683124828 1.2661427864754493 -2.3539255647708064e-07 -1.5177024627948195 6.840094872114666" Properties=species:S:1:pos:R:3:initial_magmoms:R:1:castep_labels:S:1 n_minim_iter=11 pbc="T T T"
P        2.08910310       0.04620155       4.86118114       0.00000000 NULL
P       -0.84824069       4.89343502       3.24505651       0.00000000 NULL
P        0.47389786       1.23238838       5.93223767       0.00000000 NULL
P        3.41124279       3.70724778       2.17399999       0.00000000 NULL
P        0.62665920       3.81093625       1.84040993       0.00000000 NULL
P        3.56400333       1.12869986       6.26582773       0.00000000 NULL
P        4.76332866       0.54008556       4.43447259       0.00000000 NULL
P        1.82598471       4.39955018       3.67176507       0.00000000 NULL
P       -1.36056301       2.67973301       4.22125124       0.00000000 NULL
P        1.57678147       2.25990371       3.88498642       0.00000000 NULL
10
Lattice="5.993746266577891 -9.296178222637015e-07 2.9214523488635866e-16 -2.996872129075098 6.474707427963458 1.451252948205904 -2.0678812403092518e-07 -1.3332742969198113 6.587392634936079" Properties=species:S:1:pos:R:3:initial_magmoms:R:1:castep_labels:S:1 n_minim_iter=12 pbc="T T T"
P        2.12700168       0.18076990       4.72738132       0.00000000 NULL
P       -0.86987071       4.96066257       3.31126426       0.00000000 NULL
P        0.49183838       1.38329219       5.78715562       0.00000000 NULL
P        3.48871188       3.75813986       2.25148996       0.00000000 NULL
P        0.63743205       3.85943182       1.93626335       0.00000000 NULL
P        3.63430478       1.28200018       6.10238223       0.00000000 NULL
P        4.86648846       0.65446656       4.32504709       0.00000000 NULL
P        1.86961592       4.48696505       3.71359849       0.00000000 NULL
P       -1.39673177       2.79307682       4.19245801       0.00000000 NULL
P        1.60014129       2.34835581       3.84618757       0.00000000 NULL
10
Lattice="6.15284661246347 -9.542939615998845e-07 2.0165438429716283e-16 -3.0764222951586118 6.518932884515667 1.6203836532027647 -1.825813232760101e-07 -1.1772000281728898 6.297707315977804" Properties=species:S:1:pos:R:3:initial_magmoms:R:1:castep_labels:S:1 n_minim_iter=13 pbc="T T T"
P        2.17973618       0.30107075       4.56590957       0.00000000 NULL
P       -0.89668639       5.04066142       3.35218140       0.00000000 NULL
P        0.51359633       1.51979220       5.60732150       0.00000000 NULL
P        3.59001999       3.82193954       2.31076947       0.00000000 NULL
P        0.65175267       3.92101058       2.01442538       0.00000000 NULL
P        3.72817559       1.42072112       5.90366559       0.00000000 NULL
P        5.00331155       0.75523093       4.18686776       0.00000000 NULL
P        1.92688883       4.58650037       3.73122321       0.00000000 NULL
P       -1.44382954       2.90831657       4.14003880       0.00000000 NULL
P        1.63259369       2.43341577       3.77805217       0.00000000 NULL
10
Lattice="6.642255974006042 -1.0302003556987327e-06 9.106993131363971e-17 -3.3211269530549954 6.6664197273804975 1.9912998615120432 -1.3292800631885015e-07 -0.8570583784260767 5.656254553046727" Properties=species:S:1:pos:R:3:initial_magmoms:R:1:castep_labels:S:1 n_minim_iter=14 pbc="T T T"
P        2.34307263       0.56766571       4.21700425       0.00000000 NULL
P       -0.97805463       5.24169491       3.43055016       0.00000000 NULL
P        0.58024765       1.80577460       5.20064547       0.00000000 NULL
P        3.90137598       4.00358554       2.44690894       0.00000000 NULL
P        0.69068400       4.09854415       2.19252529       0.00000000 NULL
P        4.01181162       1.71081595       5.45502913       0.00000000 NULL
P        5.43055014       0.96911073       3.87508942       0.00000000 NULL
P        2.10942275       4.84024893       3.77246500       0.00000000 NULL
P       -1.59078454       3.18848293       4.03715148       0.00000000 NULL
P        1.73034336       2.62087788       3.61040294       0.00000000 NULL
10
Lattice="6.382471122298593 -9.899082549753236e-07 6.417393036094091e-19 -3.1912345262097004 6.672812900399871 1.7387154198866956 -1.7400535062726268e-07 -1.1219061175313703 5.9080793589883935" Properties=species:S:1:pos:R:3:initial_magmoms:R:1:castep_labels:S:1 n_minim_iter=15 pbc="T T T"
P        2.24935615       0.39323934       4.35593152       0.00000000 NULL
P       -0.94187867       5.15766674       3.29086326       0.00000000 NULL
P        0.55126506       1.58125967       5.29876893       0.00000000 NULL
P        3.74250099       3.96964594       2.34802585       0.00000000 NULL
P        0.65738175       4.07764734       2.08411984       0.00000000 NULL
P        3.84861691       1.47325824       5.56267493       0.00000000 NULL
P        5.23048197       0.81620672       3.97598460       0.00000000 NULL
P        2.03924702       4.73469843       3.67081018       0.00000000 NULL
P       -1.52623901       3.05403181       4.04403673       0.00000000 NULL
P        1.66499646       2.49687445       3.60275805       0.00000000 NULL
10
Lattice="6.538618054333451 -1.0141263257309569e-06 7.046360403870573e-18 -3.269307999471614 6.626103823748031 1.8525699860196432 -1.5250896777317842e-07 -0.9833073716409162 5.983255836039222" Properties=species:S:1:pos:R:3:initial_magmoms:R:1:castep_labels:S:1 n_minim_iter=16 pbc="T T T"
P        2.30094794       0.48074803       4.42842015       0.00000000 NULL
P       -0.96836036       5.16204770       3.40740567       0.00000000 NULL
P        0.56918821       1.67080003       5.39775574       0.00000000 NULL
P        3.83849759       3.97199522       2.43807008       0.00000000 NULL
P        0.67081316       4.07411417       2.17144544       0.00000000 NULL
P        3.94012180       1.56868105       5.66438038       0.00000000 NULL
P        5.36526198       0.88948130       4.04368006       0.00000000 NULL
P        2.09595355       4.75331348       3.79214576       0.00000000 NULL
P       -1.56874127       3.10373307       4.15172557       0.00000000 NULL
P        1.70056767       2.53906285       3.68410025       0.00000000 NULL
10
Lattice="6.455542379439974 -1.0012414579470715e-06 3.6511188069521714e-17 -3.227770170284215 6.572851411279217 1.8292120196128034 -1.5264605940194205e-07 -0.9841912752519494 5.933890189613642" Properties=species:S:1:pos:R:3:initial_magmoms:R:1:castep_labels:S:1 n_minim_iter=17 pbc="T T T"
P        2.27064174       0.47240067       4.39276808       0.00000000 NULL
P       -0.95712873       5.11625876       3.37033413       0.00000000 NULL
P        0.56389132       1.64731471       5.34695938       0.00000000 NULL
P        3.79166286       3.94134424       2.41614282       0.00000000 NULL
P        0.66191180       4.04429341       2.15252654       0.00000000 NULL
P        3.88968260       1.54436551       5.61057566       0.00000000 NULL
P        5.29982143       0.87931485       4.01045704       0.00000000 NULL
P        2.07205084       4.70934364       3.75264517       0.00000000 NULL
P       -1.55202167       3.07497630       4.11583380       0.00000000 NULL
P        1.67574943       2.51368331       3.64726841       0.00000000 NULL
10
Lattice="6.485319393197613 -1.0058598120335972e-06 3.939426790551503e-17 -3.2426586730858187 6.599139418553798 1.8374125957151413 -1.5311421456943726e-07 -0.9872097235005208 5.953474977035991" Properties=species:S:1:pos:R:3:initial_magmoms:R:1:castep_labels:S:1 n_minim_iter=18 pbc="T T T"
P        2.28057675       0.47426997       4.40788556       0.00000000 NULL
P       -0.96208222       5.13765901       3.38300201       0.00000000 NULL
P        0.56729952       1.65362858       5.36483367       0.00000000 NULL
P        3.80995958       3.95829992       2.42605390       0.00000000 NULL
P        0.66443511       4.06243996       2.16206319       0.00000000 NULL
P        3.90709441       1.54948851       5.62882438       0.00000000 NULL
P        5.32633900       0.88300003       4.02356166       0.00000000 NULL
P        2.08367990       4.72892800       3.76732591       0.00000000 NULL
P       -1.56099076       3.08884991       4.13305988       0.00000000 NULL
P        1.68166885       2.52307925       3.65782769       0.00000000 NULL
