10
Lattice="4.047639999999478 -2.0580958678002464e-06 5.393475340214684e-33 -2.023817196524737 5.513571963383471 2.7794491406064e-16 -3.123644347786898e-07 -0.6143245319951086 9.551023628229007" Properties=species:S:1:pos:R:3:initial_magmoms:R:1:castep_labels:S:1 n_minim_iter=1 pbc="T T T"
P        2.49383442       0.07657051       1.70411847       0.00000000 NULL
P        0.47001684       4.82267437       7.84690516       0.00000000 NULL
P       -0.59112029       2.57182788       4.57652101       0.00000000 NULL
P        1.43269959       2.32741808       4.97450262       0.00000000 NULL
P       -1.98068010       5.08579020       6.61543820       0.00000000 NULL
P        0.04313722      -0.18654282       2.93558543       0.00000000 NULL
P       -1.42954488       4.78668453       8.53580521       0.00000000 NULL
P        0.59427274       0.11256229       1.01521842       0.00000000 NULL
P        2.95285091       1.95154529       1.03617050       0.00000000 NULL
P        0.92903141       2.94769913       8.51485313       0.00000000 NULL
10
Lattice="4.058715637347918 -2.063727476208369e-06 9.083364930962635e-19 -2.02935501450259 5.514941504924131 -0.0019164865898935082 -3.1413007875507284e-07 -0.6177970093001927 9.57035201109622" Properties=species:S:1:pos:R:3:initial_magmoms:R:1:castep_labels:S:1 n_minim_iter=2 pbc="T T T"
P        2.50065486       0.07595145       1.70748596       0.00000000 NULL
P        0.47129945       4.82119049       7.86094956       0.00000000 NULL
P       -0.59272829       2.57094549       4.58468970       0.00000000 NULL
P        1.43662940       2.32619753       4.98374583       0.00000000 NULL
P       -1.98606724       5.08486719       6.62646685       0.00000000 NULL
P        0.04328790      -0.18772276       2.94196868       0.00000000 NULL
P       -1.43354460       4.78479798       8.55128714       0.00000000 NULL
P        0.59581084       0.11234589       1.01714839       0.00000000 NULL
P        2.96098023       1.95178649       1.03754912       0.00000000 NULL
P        0.93162291       2.94535498       8.53088641       0.00000000 NULL
10
Lattice="4.3690425097603445 -2.2215187951356688e-06 -4.6763563398401854e-17 -2.184518432880567 5.55000422851523 -0.05536010796409294 -3.631900157921496e-07 -0.7142827786231402 10.107682041507786" Properties=species:S:1:pos:R:3:initial_magmoms:R:1:castep_labels:S:1 n_minim_iter=3 pbc="T T T"
P        2.69176532       0.05868652       1.80108935       0.00000000 NULL
P        0.50724646       4.77703218       8.25123258       0.00000000 NULL
P       -0.63775206       2.54487395       4.81156107       0.00000000 NULL
P        1.54676906       2.29084591       5.24076087       0.00000000 NULL
P       -2.13704402       5.05630186       6.93250272       0.00000000 NULL
P        0.04747456      -0.22058047       3.11981922       0.00000000 NULL
P       -1.54573038       4.72946953       8.98150064       0.00000000 NULL
P        0.63878853       0.10625126       1.07082130       0.00000000 NULL
P        3.18886766       1.95731436       1.07579336       0.00000000 NULL
P        1.00434687       2.87840383       8.97652858       0.00000000 NULL
10
Lattice="4.42889487258886 -2.25195181305764e-06 -4.8335550293659315e-17 -2.2144446442248205 5.491141170679396 -0.07314193035765126 -3.7551755299401156e-07 -0.7385272433486567 10.263716724758243" Properties=species:S:1:pos:R:3:initial_magmoms:R:1:castep_labels:S:1 n_minim_iter=4 pbc="T T T"
P        2.72951523       0.05244673       1.82795357       0.00000000 NULL
P        0.51507016       4.70016441       8.36262123       0.00000000 NULL
P       -0.64585458       2.50374127       4.87504153       0.00000000 NULL
P        1.56859273       2.24887105       5.31553326       0.00000000 NULL
P       -2.16720644       4.98219891       7.01810143       0.00000000 NULL
P        0.04723834      -0.22958505       3.17247337       0.00000000 NULL
P       -1.56967959       4.64798947       9.10178593       0.00000000 NULL
P        0.64476553       0.10462378       1.08878887       0.00000000 NULL
P        3.23470389       1.93315225       1.08690368       0.00000000 NULL
P        1.02025691       2.81945837       9.10367111       0.00000000 NULL
10
Lattice="4.444047106001828 -2.259656240560087e-06 -4.778394871672434e-17 -2.222020801909306 5.410550079281328 -0.09396301960077387 -3.892911233981729e-07 -0.7656156095332245 10.359712821434146" Properties=species:S:1:pos:R:3:initial_magmoms:R:1:castep_labels:S:1 n_minim_iter=5 pbc="T T T"
P        2.74013264       0.04421425       1.84456845       0.00000000 NULL
P        0.51811140       4.60071742       8.42118135       0.00000000 NULL
P       -0.64712046       2.44999127       4.90741711       0.00000000 NULL
P        1.57490297       2.19494159       5.35833270       0.00000000 NULL
P       -2.17624646       4.88424080       7.05983491       0.00000000 NULL
P        0.04577448      -0.23930639       3.20591490       0.00000000 NULL
P       -1.57927157       4.54214889       9.16373099       0.00000000 NULL
P        0.64274973       0.10278491       1.10201882       0.00000000 NULL
P        3.24939477       1.90091807       1.09071054       0.00000000 NULL
P        1.02737165       2.74401309       9.17503927       0.00000000 NULL
10
Lattice="4.441580166091673 -2.2584018803006568e-06 -5.2085097613151343e-17 -2.220787379238792 5.317555921497594 -0.1395236465909224 -4.2415276779388997e-07 -0.834177715168273 10.431316660310106" Properties=species:S:1:pos:R:3:initial_magmoms:R:1:castep_labels:S:1 n_minim_iter=6 pbc="T T T"
P        2.74001512       0.02591194       1.85755718       0.00000000 NULL
P        0.51922729       4.45746347       8.43423583       0.00000000 NULL
P       -0.64508231       2.37011882       4.91309747       0.00000000 NULL
P        1.57570764       2.11325777       5.37869554       0.00000000 NULL
P       -2.17781144       4.74520178       7.05936774       0.00000000 NULL
P        0.04297610      -0.26182363       3.23242528       0.00000000 NULL
P       -1.58538557       4.38562852       9.17737294       0.00000000 NULL
P        0.63540234       0.09774903       1.11442008       0.00000000 NULL
P        3.25427200       1.86129864       1.08271721       0.00000000 NULL
P        1.03348231       2.62207624       9.20907581       0.00000000 NULL
10
Lattice="4.442970358498616 -2.2591087488116465e-06 -5.486384249040941e-17 -2.221482500770447 5.267743194652983 -0.18485331873944816 -4.6125737525461895e-07 -0.907151037579238 10.443630903179551" Properties=species:S:1:pos:R:3:initial_magmoms:R:1:castep_labels:S:1 n_minim_iter=7 pbc="T T T"
P        2.74131281       0.00801743       1.86058961       0.00000000 NULL
P        0.51982984       4.35257193       8.39818798       0.00000000 NULL
P       -0.64383615       2.30976484       4.89118064       0.00000000 NULL
P        1.57764890       2.05082570       5.36759694       0.00000000 NULL
P       -2.18062986       4.64531193       7.01976629       0.00000000 NULL
P        0.04085282      -0.28471982       3.23901130       0.00000000 NULL
P       -1.59108729       4.26870408       9.14004889       0.00000000 NULL
P        0.63039576       0.09188742       1.11872869       0.00000000 NULL
P        3.26074455       1.83739557       1.06764471       0.00000000 NULL
P        1.03925972       2.52319325       9.19113288       0.00000000 NULL
10
Lattice="4.447353288044815 -2.2613373287476033e-06 -7.742799134998244e-17 -2.2236740134591217 5.173508032484904 -0.2662482383217096 -5.276118017934689e-07 -1.0376497354532639 10.43614110641096" Properties=species:S:1:pos:R:3:initial_magmoms:R:1:castep_labels:S:1 n_minim_iter=8 pbc="T T T"
P        2.74439247      -0.02365179       1.86095361       0.00000000 NULL
P        0.52071796       4.15950728       8.30893926       0.00000000 NULL
P       -0.64170240       2.19844495       4.83760125       0.00000000 NULL
P        1.58197411       1.93741172       5.33229162       0.00000000 NULL
P       -2.18670014       4.46077005       6.92831239       0.00000000 NULL
P        0.03697407      -0.32491180       3.24158048       0.00000000 NULL
P       -1.60115511       4.05541666       9.04728890       0.00000000 NULL
P        0.62251951       0.08044099       1.12260397       0.00000000 NULL
P        3.27323399       1.79208162       1.03740523       0.00000000 NULL
P        1.04955763       2.34377333       9.13248764       0.00000000 NULL
10
Lattice="4.466138891663411 -2.2708892091219963e-06 -6.436539814733406e-17 -2.2330668632990394 5.079046616989203 -0.3673918082918225 -6.113481561551556e-07 -1.202333326113763 10.419675623211159" Properties=species:S:1:pos:R:3:initial_magmoms:R:1:castep_labels:S:1 n_minim_iter=9 pbc="T T T"
P        2.75543347      -0.06149631       1.85970964       0.00000000 NULL
P        0.52236606       3.93820678       8.19257418       0.00000000 NULL
P       -0.64084303       2.06906072       4.76853639       0.00000000 NULL
P        1.59222629       1.80765094       5.28374742       0.00000000 NULL
P       -2.20060917       4.25098308       6.80958279       0.00000000 NULL
P        0.03245793      -0.37426984       3.24270103       0.00000000 NULL
P       -1.61556829       3.81198416       8.92782425       0.00000000 NULL
P        0.61749925       0.06472849       1.12445957       0.00000000 NULL
P        3.29636346       1.74256271       0.99872113       0.00000000 NULL
P        1.06329421       2.13414721       9.05356268       0.00000000 NULL
10
Lattice="4.483441090290806 -2.2796868253793568e-06 -6.758232177153144e-17 -2.241718032630932 4.941342421361118 -0.4841844723014527 -7.064184741338534e-07 -1.3893073285527946 10.383398459817492" Properties=species:S:1:pos:R:3:initial_magmoms:R:1:castep_labels:S:1 n_minim_iter=10 pbc="T T T"
P        2.76502686      -0.10432597       1.85430675       0.00000000 NULL
P        0.52330822       3.65635824       8.04490725       0.00000000 NULL
P       -0.63855357       1.90559238       4.68110749       0.00000000 NULL
P        1.60316684       1.64644107       5.21810650       0.00000000 NULL
P       -2.21515959       3.98082874       6.66020353       0.00000000 NULL
P        0.02655871      -0.42879368       3.23901047       0.00000000 NULL
P       -1.62850265       3.50768953       8.77562168       0.00000000 NULL
P        0.61321614       0.04434492       1.12359231       0.00000000 NULL
P        3.31814325       1.67335547       0.95236176       0.00000000 NULL
P        1.07642281       1.87867623       8.94685223       0.00000000 NULL
10
Lattice="4.518780031767871 -2.2976555502594834e-06 -9.580432767274153e-17 -2.2593876004107964 4.750492051169007 -0.6489839626926084 -8.407626028146308e-07 -1.653520807281261 10.37767160063331" Properties=species:S:1:pos:R:3:initial_magmoms:R:1:castep_labels:S:1 n_minim_iter=11 pbc="T T T"
P        2.78399878      -0.16341690       1.85325947       0.00000000 NULL
P        0.52461050       3.26038530       7.87542817       0.00000000 NULL
P       -0.63685808       1.67765504       4.58219528       0.00000000 NULL
P        1.62253181       1.41931454       5.14649236       0.00000000 NULL
P       -2.24045897       3.60407994       6.48186697       0.00000000 NULL
P        0.01892896      -0.50710873       3.24682067       0.00000000 NULL
P       -1.64649634       3.08414527       8.60482964       0.00000000 NULL
P        0.61289211       0.01282534       1.12385800       0.00000000 NULL
P        3.35338715       1.57660283       0.89069505       0.00000000 NULL
P        1.09399710       1.52036499       8.83799259       0.00000000 NULL
10
Lattice="4.572029747473341 -2.3247313327083212e-06 -1.389627813841638e-16 -2.286012539701815 4.590328070508129 -0.8408927953412199 -1.000723323990972e-06 -1.9681142250446728 10.376695219146994" Properties=species:S:1:pos:R:3:initial_magmoms:R:1:castep_labels:S:1 n_minim_iter=12 pbc="T T T"
P        2.81186285      -0.23165989       1.85174188       0.00000000 NULL
P        0.52584955       2.85387086       7.68406055       0.00000000 NULL
P       -0.63529512       1.44275897       4.47133600       0.00000000 NULL
P        1.65071962       1.17945318       5.06446643       0.00000000 NULL
P       -2.27681652       3.22466181       6.27952575       0.00000000 NULL
P        0.00919641      -0.60244798       3.25627668       0.00000000 NULL
P       -1.66884080       2.64614068       8.41230525       0.00000000 NULL
P        0.61717271      -0.02392748       1.12349718       0.00000000 NULL
P        3.40167594       1.48697941       0.81798918       0.00000000 NULL
P        1.11566088       1.13523096       8.71781325       0.00000000 NULL
10
Lattice="4.768112282736547 -2.4244330493349176e-06 -5.305537737330574e-16 -2.3840539495456574 4.3106404942157965 -1.3280349058182277 -1.4139560728251645e-06 -2.7808156286904055 10.268787290903619" Properties=species:S:1:pos:R:3:initial_magmoms:R:1:castep_labels:S:1 n_minim_iter=13 pbc="T T T"
P        2.91316842      -0.40420990       1.82053744       0.00000000 NULL
P        0.52911347       1.93403179       7.12021495       0.00000000 NULL
P       -0.62886243       0.91122516       4.14066721       0.00000000 NULL
P        1.75519357       0.61859791       4.80008518       0.00000000 NULL
P       -2.41128462       2.38605180       5.69466341       0.00000000 NULL
P       -0.02723013      -0.85622692       3.24608898       0.00000000 NULL
P       -1.74146230       1.64655664       7.82581725       0.00000000 NULL
P        0.64259295      -0.11673244       1.11493514       0.00000000 NULL
P        3.57104311       1.30611921       0.61808985       0.00000000 NULL
P        1.18698642       0.22370202       8.32266254       0.00000000 NULL
10
Lattice="4.968038698444554 -2.5260892563884906e-06 -5.175943291150001e-16 -2.4840169933228737 4.633328994314114 -1.1648427688582197 -1.2884968323163289e-06 -2.5340759854229735 10.366100787059837" Properties=species:S:1:pos:R:3:initial_magmoms:R:1:castep_labels:S:1 n_minim_iter=14 pbc="T T T"
P        3.02323993      -0.35284511       1.83076846       0.00000000 NULL
P        0.53922200       2.45209503       7.37048956       0.00000000 NULL
P       -0.65230379       1.20295965       4.27119118       0.00000000 NULL
P        1.83171541       0.89629148       4.93006684       0.00000000 NULL
P       -2.51847069       2.88683370       5.92168324       0.00000000 NULL
P       -0.03445321      -0.78758067       3.27957478       0.00000000 NULL
P       -1.80568790       2.17198452       8.05677820       0.00000000 NULL
P        0.67833030      -0.07273222       1.14447983       0.00000000 NULL
P        3.72721521       1.45382737       0.68692730       0.00000000 NULL
P        1.24319545       0.64542184       8.51433072       0.00000000 NULL
10
Lattice="4.803096891160994 -2.442221607068746e-06 -5.235734434182134e-16 -2.4015461787737657 4.458111136644793 -1.1141687582475204 -1.2339360723472032e-06 -2.426771793208019 9.931560708453613" Properties=species:S:1:pos:R:3:initial_magmoms:R:1:castep_labels:S:1 n_minim_iter=15 pbc="T T T"
P        2.92427022      -0.33554810       1.74721925       0.00000000 NULL
P        0.52272315       2.36688446       7.07017271       0.00000000 NULL
P       -0.62545114       1.16105607       4.09298464       0.00000000 NULL
P        1.77609716       0.87028145       4.72440732       0.00000000 NULL
P       -2.44268564       2.78350249       5.67715865       0.00000000 NULL
P       -0.04113899      -0.75216312       3.14023330       0.00000000 NULL
P       -1.74662414       2.09783358       7.71902837       0.00000000 NULL
P        0.65492321      -0.06649491       1.09836358       0.00000000 NULL
P        3.60558584       1.39619306       0.66033695       0.00000000 NULL
P        1.20403700       0.63514260       8.15705500       0.00000000 NULL
10
Lattice="4.826572875901784 -2.454158396704985e-06 -5.255394388635416e-16 -2.413284153124019 4.493551205385937 -1.1242610460182236 -1.2448332406062194e-06 -2.4482031632483916 9.978133421111542" Properties=species:S:1:pos:R:3:initial_magmoms:R:1:castep_labels:S:1 n_minim_iter=16 pbc="T T T"
P        2.93541746      -0.33966456       1.75248277       0.00000000 NULL
P        0.52213241       2.38500960       7.10138961       0.00000000 NULL
P       -0.62496139       1.16954007       4.10909074       0.00000000 NULL
P        1.78832490       0.87580614       4.74478164       0.00000000 NULL
P       -2.45940223       2.80578593       5.69669018       0.00000000 NULL
P       -0.04611761      -0.76043786       3.15718220       0.00000000 NULL
P       -1.75226727       2.11125693       7.74758770       0.00000000 NULL
P        0.66101806      -0.06590957       1.10628468       0.00000000 NULL
P        3.62469141       1.40772433       0.65976555       0.00000000 NULL
P        1.21140458       0.63762002       8.19410683       0.00000000 NULL
10
Lattice="4.826995075181522 -2.4543730715750845e-06 -5.260927723208693e-16 -2.413495250565797 4.497874172144259 -1.1239832157271996 -1.2448334380355753e-06 -2.448203551524976 9.95581883909209" Properties=species:S:1:pos:R:3:initial_magmoms:R:1:castep_labels:S:1 n_minim_iter=17 pbc="T T T"
P        2.93342401      -0.34011318       1.74522243       0.00000000 NULL
P        0.51992786       2.38978080       7.08661320       0.00000000 NULL
P       -0.62147076       1.17173226       4.09826157       0.00000000 NULL
P        1.79202663       0.87793653       4.73357406       0.00000000 NULL
P       -2.46450810       2.81112770       5.68018840       0.00000000 NULL
P       -0.05101238      -0.76145704       3.15164723       0.00000000 NULL
P       -1.75024153       2.11397688       7.72558584       0.00000000 NULL
P        0.66325490      -0.06430695       1.10624978       0.00000000 NULL
P        3.62642513       1.40929539       0.65617902       0.00000000 NULL
P        1.21292720       0.64037153       8.17565661       0.00000000 NULL
10
Lattice="4.835459311959499 -2.4586768660639984e-06 -5.265526242084493e-16 -2.417727362712468 4.510150890595809 -1.1225893514447118 -1.2443012347996511e-06 -2.447156871837695 9.902734976624513" Properties=species:S:1:pos:R:3:initial_magmoms:R:1:castep_labels:S:1 n_minim_iter=18 pbc="T T T"
P        2.93294624      -0.34107072       1.72748725       0.00000000 NULL
P        0.51521798       2.40406174       7.05265838       0.00000000 NULL
P       -0.61356611       1.17846125       4.07284748       0.00000000 NULL
P        1.80416340       0.88453092       4.70729815       0.00000000 NULL
P       -2.48116263       2.82673081       5.64144789       0.00000000 NULL
P       -0.06343480      -0.76373674       3.13869774       0.00000000 NULL
P       -1.74782110       2.12294554       7.67378229       0.00000000 NULL
P        0.66990744      -0.05995222       1.10636334       0.00000000 NULL
P        3.63625477       1.41391153       0.64770268       0.00000000 NULL
P        1.21852473       0.64907877       8.13244294       0.00000000 NULL
10
Lattice="4.874254777096845 -2.47840312298279e-06 -5.014002993744174e-16 -2.4371250853978985 4.529588190076937 -1.1136142915593235 -1.2374971359409421e-06 -2.433775307319713 9.764849039969578" Properties=species:S:1:pos:R:3:initial_magmoms:R:1:castep_labels:S:1 n_minim_iter=19 pbc="T T T"
P        2.94415207      -0.34170592       1.68396169       0.00000000 NULL
P        0.50702610       2.43751580       6.96727306       0.00000000 NULL
P       -0.59719458       1.19429867       4.01030294       0.00000000 NULL
P        1.83993266       0.90151234       4.64093182       0.00000000 NULL
P       -2.52993815       2.86127469       5.54771574       0.00000000 NULL
P       -0.09281261      -0.76546173       3.10351901       0.00000000 NULL
P       -1.74940651       2.14408058       7.54738869       0.00000000 NULL
P        0.68771976      -0.04826841       1.10384607       0.00000000 NULL
P        3.67289149       1.42227243       0.62861196       0.00000000 NULL
P        1.23576372       0.67353671       8.02262280       0.00000000 NULL
10
Lattice="5.101623854928349 -2.594013048711798e-06 -4.410457643970493e-16 -2.550809596471357 4.584345454453336 -1.0706264995305483 -1.2027353957817455e-06 -2.3654096824676962 9.156194098646317" Properties=species:S:1:pos:R:3:initial_magmoms:R:1:castep_labels:S:1 n_minim_iter=20 pbc="T T T"
P        3.02934343      -0.35078978       1.49948169       0.00000000 NULL
P        0.47853299       2.56972246       6.58608591       0.00000000 NULL
P       -0.51841349       1.24918022       3.74115475       0.00000000 NULL
P        2.03239830       0.96975347       4.34441285       0.00000000 NULL
P       -2.78927345       2.98901201       5.14205222       0.00000000 NULL
P       -0.23846343      -0.77007600       2.94351538       0.00000000 NULL
P       -1.77250670       2.20546258       7.00362098       0.00000000 NULL
P        0.77830411       0.01347239       1.08194663       0.00000000 NULL
P        3.87254369       1.44783684       0.54430853       0.00000000 NULL
P        1.32173141       0.77109498       7.54125908       0.00000000 NULL
10
Lattice="4.538414529218596 -2.307639066351058e-06 -5.246753929020672e-16 -2.2692049795875358 4.493934420344387 -1.0213404542207891 -1.1542017949306025e-06 -2.269959053861309 9.249937543929532" Properties=species:S:1:pos:R:3:initial_magmoms:R:1:castep_labels:S:1 n_minim_iter=21 pbc="T T T"
P        2.70350557      -0.35546358       1.51485756       0.00000000 NULL
P        0.43429979       2.57943618       6.71373953       0.00000000 NULL
P       -0.43451691       1.23994429       3.81856080       0.00000000 NULL
P        1.83469022       0.98402920       4.41003630       0.00000000 NULL
P       -2.51334604       2.96633721       5.25510811       0.00000000 NULL
P       -0.24414067      -0.74236161       2.97348899       0.00000000 NULL
P       -1.57407793       2.17908373       7.11974347       0.00000000 NULL
P        0.69512825       0.04489091       1.10885362       0.00000000 NULL
P        3.43901776       1.41982812       0.56783169       0.00000000 NULL
P        1.16981018       0.80414374       7.66076541       0.00000000 NULL
10
Lattice="4.942541528332519 -2.5131247585572273e-06 -4.198775280750157e-16 -2.471268392229281 4.664869956062882 -1.0522680287274995 -1.1911271459097356e-06 -2.342579834388136 9.540672605029089" Properties=species:S:1:pos:R:3:initial_magmoms:R:1:castep_labels:S:1 n_minim_iter=22 pbc="T T T"
P        2.94627226      -0.37004603       1.56201822       0.00000000 NULL
P        0.47500305       2.69233314       6.92638637       0.00000000 NULL
P       -0.47182908       1.29517181       3.93698774       0.00000000 NULL
P        1.99944155       1.02711626       4.55141684       0.00000000 NULL
P       -2.73578610       3.09162511       5.41752163       0.00000000 NULL
P       -0.26451730      -0.76933473       3.07088295       0.00000000 NULL
P       -1.71776413       2.27145327       7.34426868       0.00000000 NULL
P        0.75350551       0.05083607       1.14413590       0.00000000 NULL
P        3.74399547       1.47970289       0.58357204       0.00000000 NULL
P        1.27272438       0.84258341       7.90483254       0.00000000 NULL
10
Lattice="4.929044386984567 -2.5062618925941355e-06 -4.3905769639213084e-16 -2.464519861460022 4.586389677996493 -1.0259046522051236 -1.1634599024168732e-06 -2.2881668969934785 9.370041245910189" Properties=species:S:1:pos:R:3:initial_magmoms:R:1:castep_labels:S:1 n_minim_iter=23 pbc="T T T"
P        2.93975780      -0.36150183       1.53175386       0.00000000 NULL
P        0.47523714       2.65972161       6.81238274       0.00000000 NULL
P       -0.46889190       1.27905591       3.87071448       0.00000000 NULL
P        1.99563016       1.01916483       4.47342211       0.00000000 NULL
P       -2.72900589       3.04838641       5.32930535       0.00000000 NULL
P       -0.26448563      -0.75016337       3.01483125       0.00000000 NULL
P       -1.71502650       2.24424284       7.22019967       0.00000000 NULL
P        0.74949458       0.05397916       1.12393692       0.00000000 NULL
P        3.73323529       1.45499258       0.57608815       0.00000000 NULL
P        1.26871279       0.84322639       7.76804845       0.00000000 NULL
10
Lattice="4.961946714157417 -2.52299167673986e-06 -4.3179532316009927e-16 -2.480971030956032 4.57476735431234 -1.0164719270811415 -1.1544930450667976e-06 -2.270531853318074 9.318277020935323" Properties=species:S:1:pos:R:3:initial_magmoms:R:1:castep_labels:S:1 n_minim_iter=24 pbc="T T T"
P        2.95974344      -0.35981698       1.52204900       0.00000000 NULL
P        0.47877162       2.66404946       6.77975610       0.00000000 NULL
P       -0.47026172       1.28068392       3.85136553       0.00000000 NULL
P        2.01071150       1.02354952       4.45043957       0.00000000 NULL
P       -2.74783938       3.04846931       5.30370085       0.00000000 NULL
P       -0.26686796      -0.74423355       2.99810424       0.00000000 NULL
P       -1.72752359       2.24657017       7.18374330       0.00000000 NULL
P        0.75344865       0.05766456       1.11806180       0.00000000 NULL
P        3.75769884       1.45246673       0.57376585       0.00000000 NULL
P        1.27672517       0.85176494       7.72803924       0.00000000 NULL
10
Lattice="5.020637375586713 -2.5528340065228246e-06 -4.1386241736231823e-16 -2.5103163678426896 4.56262892983233 -1.000969316786771 -1.1401505519554165e-06 -2.242324591603802 9.21974979207041" Properties=species:S:1:pos:R:3:initial_magmoms:R:1:castep_labels:S:1 n_minim_iter=25 pbc="T T T"
P        2.99498495      -0.35879187       1.50345630       0.00000000 NULL
P        0.48466781       2.67909315       6.71532418       0.00000000 NULL
P       -0.47104469       1.28597165       3.81362107       0.00000000 NULL
P        2.03927387       1.03433060       4.40515941       0.00000000 NULL
P       -2.78232909       3.05519995       5.25234901       0.00000000 NULL
P       -0.27201233      -0.73489535       2.96643147       0.00000000 NULL
P       -1.74981615       2.25362192       7.11185903       0.00000000 NULL
P        0.76050142       0.06668163       1.10692145       0.00000000 NULL
P        3.80097984       1.45104887       0.56781025       0.00000000 NULL
P        1.29066086       0.86925159       7.65097023       0.00000000 NULL
