8
Lattice="3.4834937716153216 0.0 0.0 0.0 5.321737036881014 0.0 0.0 0.0 7.099262399322574" Properties=species:S:1:pos:R:3:initial_magmoms:R:1:castep_labels:S:1:forces:R:3 n_minim_iter=1 energy=-43.645623737669 stress="0.004125742835705856 0.0 0.0 0.0 0.002993515239940764 -0.0 0.0 -0.0 -0.005601035165037782" free_energy=-43.645623737669 pbc="T T T"
P        2.76990906       4.01789884       0.89641752       0.00000000 NULL      -0.31059600      -0.79829700       0.63003800
P        0.71358471       1.35703032       2.65321368       0.00000000 NULL       0.31059600      -0.79829600      -0.63003700
P        1.02816217       3.96470672       6.20284488       0.00000000 NULL      -0.31059500       0.79829600      -0.63003800
P        2.45533160       1.30383820       4.44604872       0.00000000 NULL       0.31059600       0.79829600       0.63003700
P        2.51242702       0.89650023       1.03117489       0.00000000 NULL       0.18422800       0.79795900       0.20213600
P        0.97106675       3.55736875       2.51845631       0.00000000 NULL      -0.18422800       0.79795900      -0.20213500
P        0.77068013       1.76436829       6.06808751       0.00000000 NULL       0.18422800      -0.79795900      -0.20213600
P        2.71281364       4.42523681       4.58080609       0.00000000 NULL      -0.18422800      -0.79795900       0.20213500
8
Lattice="3.344057461430109 0.0 0.0 0.0 5.166314623896343 0.0 0.0 0.0 7.5040982536777125" Properties=species:S:1:pos:R:3:initial_magmoms:R:1:castep_labels:S:1:forces:R:3 n_minim_iter=2 energy=-44.082458830332 stress="-0.01965710954902846 0.0 -0.0 0.0 0.001819055710750298 -0.0 -0.0 -0.0 0.010146077686497591" free_energy=-44.082458830332 pbc="T T T"
P        2.63660373       3.84224986       0.99763941       0.00000000 NULL      -0.41670900      -0.39705100       0.69567300
P        0.70745373       1.25909254       2.75440972       0.00000000 NULL       0.41670900      -0.39705300      -0.69567300
P        0.96457500       3.90722208       6.50645885       0.00000000 NULL      -0.41670800       0.39705300      -0.69567300
P        2.37948246       1.32406477       4.74968853       0.00000000 NULL       0.41670800       0.39705100       0.69567300
P        2.42516581       0.92859855       1.10605249       0.00000000 NULL       0.16702400       0.46027700       0.43421900
P        0.91889165       3.51175587       2.64599664       0.00000000 NULL      -0.16702400       0.46027900      -0.43421900
P        0.75313708       1.65455876       6.39804577       0.00000000 NULL       0.16702500      -0.46027900      -0.43422000
P        2.59092038       4.23771607       4.85810161       0.00000000 NULL      -0.16702600      -0.46027700       0.43421900
8
Lattice="3.4758316145677277 0.0 0.0 0.0 5.026749510177567 0.0 0.0 0.0 7.538240063253432" Properties=species:S:1:pos:R:3:initial_magmoms:R:1:castep_labels:S:1:forces:R:3 n_minim_iter=3 energy=-44.420155408524 stress="0.023012823802723598 0.0 0.0 0.0 -0.010409145884875619 -0.0 0.0 -0.0 0.022495699609650845" free_energy=-44.420155408524 pbc="T T T"
P        2.71327772       3.68835804       1.05879429       0.00000000 NULL      -0.40712800      -0.09727200       0.56235300
P        0.76255390       1.17498328       2.71032574       0.00000000 NULL       0.40712800      -0.09727300      -0.56235300
P        0.97536191       3.85176623       6.47944577       0.00000000 NULL      -0.40712900       0.09727300      -0.56235300
P        2.50046970       1.33839147       4.82791432       0.00000000 NULL       0.40712900       0.09727200       0.56235300
P        2.53483665       0.95513285       1.13554578       0.00000000 NULL       0.16716900       0.28390200       0.35986500
P        0.94099496       3.46850761       2.63357426       0.00000000 NULL      -0.16716900       0.28390400      -0.35986500
P        0.79692085       1.55824190       6.40269429       0.00000000 NULL       0.16716800      -0.28390400      -0.35986500
P        2.67891077       4.07161666       4.90466581       0.00000000 NULL      -0.16716800      -0.28390200       0.35986500
8
Lattice="3.462075764793119 0.0 0.0 0.0 5.025477255133073 0.0 0.0 0.0 7.345506049361174" Properties=species:S:1:pos:R:3:initial_magmoms:R:1:castep_labels:S:1:forces:R:3 n_minim_iter=4 energy=-44.53998734111 stress="-0.006753290753088854 -0.0 0.0 -0.0 -0.005265200616111473 -0.0 0.0 -0.0 -0.018710202201277445" free_energy=-44.53998734111 pbc="T T T"
P        2.68714669       3.66533853       1.06122780       0.00000000 NULL      -0.41454600       0.05690900       0.19581000
P        0.77492907       1.15259990       2.61152522       0.00000000 NULL       0.41454600       0.05691000      -0.19581000
P        0.95610881       3.87287735       6.28427825       0.00000000 NULL      -0.41454700      -0.05691000      -0.19581000
P        2.50596695       1.36013873       4.73398083       0.00000000 NULL       0.41454700      -0.05690900       0.19580900
P        2.53231391       0.97912739       1.12065981       0.00000000 NULL       0.14102200       0.13668000      -0.05627000
P        0.92976186       3.49186602       2.55209321       0.00000000 NULL      -0.14102200       0.13667900       0.05627000
P        0.80127602       1.53361124       6.22484624       0.00000000 NULL       0.14102100      -0.13667900       0.05627000
P        2.66079974       4.04634987       4.79341283       0.00000000 NULL      -0.14102100      -0.13668000      -0.05627000
8
Lattice="3.4653747802352224 0.0 0.0 0.0 5.078101409341348 0.0 0.0 0.0 7.371494284491022" Properties=species:S:1:pos:R:3:initial_magmoms:R:1:castep_labels:S:1:forces:R:3 n_minim_iter=5 energy=-44.556265595885 stress="-0.0005814829953440739 -0.0 0.0 -0.0 0.015887290270510432 -0.0 0.0 -0.0 -0.014720084379949034" free_energy=-44.556265595885 pbc="T T T"
P        2.68385740       3.70297653       1.07098238       0.00000000 NULL      -0.38507800       0.13068100       0.18493400
P        0.78151738       1.16392583       2.61476477       0.00000000 NULL       0.38507800       0.13068100      -0.18493300
P        0.95117001       3.91417558       6.30051191       0.00000000 NULL      -0.38507900      -0.13068100      -0.18493400
P        2.51420477       1.37512488       4.75672952       0.00000000 NULL       0.38507900      -0.13068100       0.18493300
P        2.53688051       0.99234314       1.12691689       0.00000000 NULL       0.14895600       0.05309200      -0.03355700
P        0.92849427       3.53139384       2.55883026       0.00000000 NULL      -0.14895600       0.05309100       0.03355800
P        0.80419312       1.54670757       6.24457740       0.00000000 NULL       0.14895500      -0.05309100       0.03355700
P        2.66118166       4.08575827       4.81266403       0.00000000 NULL      -0.14895500      -0.05309200      -0.03355800
8
Lattice="3.42873573450802 0.0 0.0 0.0 5.057577647085211 0.0 0.0 0.0 7.581158279680156" Properties=species:S:1:pos:R:3:initial_magmoms:R:1:castep_labels:S:1:forces:R:3 n_minim_iter=6 energy=-44.690174408928 stress="-0.004506881819649036 0.0 0.0 0.0 0.0041683902737007115 -0.0 0.0 -0.0 -0.013778431492479438" free_energy=-44.690174408928 pbc="T T T"
P        2.59569037       3.70290905       1.15445407       0.00000000 NULL      -0.00176600       0.08130600      -0.06871600
P        0.83304536       1.17412022       2.63612507       0.00000000 NULL       0.00176600       0.08130500       0.06871600
P        0.88132250       3.88345742       6.42670421       0.00000000 NULL      -0.00176800      -0.08130500       0.06871600
P        2.54741323       1.35466860       4.94503321       0.00000000 NULL       0.00176800      -0.08130600      -0.06871600
P        2.53116798       0.99970499       1.17961992       0.00000000 NULL       0.23581800       0.01707200      -0.10450700
P        0.89756776       3.52849382       2.61095922       0.00000000 NULL      -0.23581800       0.01707300       0.10450800
P        0.81680011       1.52908383       6.40153836       0.00000000 NULL       0.23581600      -0.01707300       0.10450700
P        2.61193563       4.05787265       4.97019906       0.00000000 NULL      -0.23581600      -0.01707100      -0.10450800
8
Lattice="3.420661362640378 0.0 0.0 0.0 5.057391122664542 0.0 0.0 0.0 7.652336643258849" Properties=species:S:1:pos:R:3:initial_magmoms:R:1:castep_labels:S:1:forces:R:3 n_minim_iter=7 energy=-44.710770657937 stress="-0.0038238431100509683 -0.0 -7.553867189607017e-08 -0.0 0.002289426067826095 0.0 -7.553867189607017e-08 0.0 -0.01203308381702829" free_energy=-44.710770657937 pbc="T T T"
P        2.58841871       3.71209860       1.17570946       0.00000000 NULL      -0.19391500       0.07062500      -0.11061400
P        0.83224265       1.18340304       2.65045887       0.00000000 NULL       0.19391500       0.07062500       0.11061400
P        0.87808803       3.87398809       6.47662719       0.00000000 NULL      -0.19391300      -0.07062600       0.11061400
P        2.54257333       1.34529253       5.00187778       0.00000000 NULL       0.19391300      -0.07062500      -0.11061400
P        2.56331067       1.00504973       1.19919884       0.00000000 NULL      -0.10408200       0.00415300      -0.13687600
P        0.85735069       3.53374529       2.62696948       0.00000000 NULL       0.10408200       0.00415300       0.13687600
P        0.85297999       1.52364583       6.45313780       0.00000000 NULL      -0.10407900      -0.00415300       0.13687600
P        2.56768137       4.05234139       5.02536716       0.00000000 NULL       0.10407900      -0.00415400      -0.13687600
8
Lattice="3.4159663437316388 0.0 0.0 0.0 5.050577740616089 0.0 0.0 0.0 7.681414000037795" Properties=species:S:1:pos:R:3:initial_magmoms:R:1:castep_labels:S:1:forces:R:3 n_minim_iter=8 energy=-44.725063903775 stress="0.00021022546289923508 -0.0 -7.545781152162064e-08 -0.0 0.0008547860889169186 0.0 -7.545781152162064e-08 0.0 -0.0024257422669855385" free_energy=-44.725063903775 pbc="T T T"
P        2.55438855       3.72098475       1.15800454       0.00000000 NULL      -0.00067600       0.03925600       0.11077500
P        0.86157780       1.19569588       2.68270246       0.00000000 NULL       0.00067600       0.03925500      -0.11077500
P        0.84640538       3.85488186       6.52340946       0.00000000 NULL      -0.00067400      -0.03925500      -0.11077500
P        2.56956097       1.32959299       4.99871154       0.00000000 NULL       0.00067400      -0.03925600       0.11077500
P        2.57504736       1.02181646       1.20269543       0.00000000 NULL      -0.07462400       0.03004000      -0.03998100
P        0.84091898       3.54710533       2.63801157       0.00000000 NULL       0.07462500       0.03004100       0.03998100
P        0.86706419       1.50347241       6.47871857       0.00000000 NULL      -0.07462200      -0.03004100       0.03998100
P        2.54890216       4.02876128       5.04340243       0.00000000 NULL       0.07462200      -0.03004000      -0.03998100
8
Lattice="3.4024165112060563 0.0 0.0 0.0 5.048733686215923 0.0 0.0 0.0 7.776585834726599" Properties=species:S:1:pos:R:3:initial_magmoms:R:1:castep_labels:S:1:forces:R:3 n_minim_iter=9 energy=-44.737710996541 stress="0.002160490525744698 -0.0 7.48584777292782e-08 -0.0 -0.002988125855519598 0.0 7.48584777292782e-08 0.0 0.0029177588864540767" free_energy=-44.737710996541 pbc="T T T"
P        2.54684919       3.74867302       1.20039791       0.00000000 NULL       0.02801900      -0.00790700       0.03032700
P        0.85556732       1.22430618       2.68789500       0.00000000 NULL      -0.02801900      -0.00790800      -0.03032700
P        0.84564093       3.82442751       6.57618792       0.00000000 NULL       0.02801600       0.00790800      -0.03032700
P        2.55677558       1.30006066       5.08869083       0.00000000 NULL      -0.02801600       0.00790700       0.03032700
P        2.55456541       1.04074579       1.20305568       0.00000000 NULL       0.00118200       0.05871200       0.10646300
P        0.84785110       3.56511263       2.68523723       0.00000000 NULL      -0.00118200       0.05871300      -0.10646400
P        0.85335715       1.48362106       6.57353015       0.00000000 NULL       0.00117900      -0.05871300      -0.10646300
P        2.54905936       4.00798790       5.09134860       0.00000000 NULL      -0.00117900      -0.05871200       0.10646400
8
Lattice="3.393012182947451 0.0 0.0 0.0 5.050783533519655 0.0 0.0 0.0 7.841465547410409" Properties=species:S:1:pos:R:3:initial_magmoms:R:1:castep_labels:S:1:forces:R:3 n_minim_iter=10 energy=-44.741424771704 stress="0.0013967633059314487 0.0 -0.0 0.0 -0.0035408731159369267 0.0 -0.0 0.0 0.002397194093621507" free_energy=-44.741424771704 pbc="T T T"
P        2.54402361       3.76163197       1.21394068       0.00000000 NULL       0.02562900      -0.00401600       0.01836700
P        0.84898857       1.23624021       2.70679210       0.00000000 NULL      -0.02562900      -0.00401800      -0.01836700
P        0.84751752       3.81454333       6.62752487       0.00000000 NULL       0.02563000       0.00401800      -0.01836700
P        2.54549466       1.28915156       5.13467345       0.00000000 NULL      -0.02563000       0.00401600       0.01836700
P        2.54102990       1.05161285       1.22901038       0.00000000 NULL       0.03624000       0.03365200       0.01569000
P        0.85198228       3.57700461       2.69172239       0.00000000 NULL      -0.03624000       0.03365400      -0.01569000
P        0.84452381       1.47377892       6.61245517       0.00000000 NULL       0.03624100      -0.03365400      -0.01569000
P        2.54848837       3.99917069       5.14974316       0.00000000 NULL      -0.03624100      -0.03365300       0.01569000
8
Lattice="3.4009541454262098 0.0 0.0 0.0 5.06818249183676 0.0 0.0 0.0 7.7603569728114765" Properties=species:S:1:pos:R:3:initial_magmoms:R:1:castep_labels:S:1:forces:R:3 n_minim_iter=11 energy=-44.748211542877 stress="-0.0011794030240589624 0.0 -0.0 0.0 0.008214329746103359 0.0 -0.0 0.0 -0.00019542086111118962" free_energy=-44.748211542877 pbc="T T T"
P        2.55165084       3.81353430       1.19849497       0.00000000 NULL      -0.03008000       0.03133600      -0.01981100
P        0.84930330       1.27944306       2.68168352       0.00000000 NULL       0.03008000       0.03133800       0.01981100
P        0.85117377       3.78873943       6.56186201       0.00000000 NULL      -0.03007900      -0.03133800       0.01981100
P        2.54978038       1.25464819       5.07867345       0.00000000 NULL       0.03007900      -0.03133600      -0.01981100
P        2.55502754       1.11353762       1.20489134       0.00000000 NULL      -0.04218400       0.00065200      -0.00922900
P        0.84592660       3.64762886       2.67528715       0.00000000 NULL       0.04218400       0.00065100       0.00922900
P        0.85455047       1.42055363       6.55546563       0.00000000 NULL      -0.04218300      -0.00065100       0.00922900
P        2.54640368       3.95464487       5.08506983       0.00000000 NULL       0.04218300      -0.00065200      -0.00922900
8
Lattice="3.4211698985648287 0.0 0.0 0.0 5.0562682636017335 0.0 0.0 0.0 7.653174506934484" Properties=species:S:1:pos:R:3:initial_magmoms:R:1:castep_labels:S:1:forces:R:3 n_minim_iter=12 energy=-44.754960568773 stress="-0.0016151093858662792 0.0 0.0 0.0 0.009955107627512606 0.0 0.0 0.0 -0.0016568052225980248" free_energy=-44.754960568773 pbc="T T T"
P        2.56752712       3.85184470       1.17319699       0.00000000 NULL      -0.04977700       0.02051500      -0.02266400
P        0.85364278       1.32371057       2.65339027       0.00000000 NULL       0.04977700       0.02051500       0.02266300
P        0.85694217       3.73255769       6.47997752       0.00000000 NULL      -0.04977700      -0.02051600       0.02266400
P        2.56422773       1.20442356       4.99978424       0.00000000 NULL       0.04977700      -0.02051500      -0.02266300
P        2.57333041       1.18552703       1.17211958       0.00000000 NULL      -0.07044500      -0.01333800      -0.01047700
P        0.84783948       3.71366116       2.65446767       0.00000000 NULL       0.07044500      -0.01333800       0.01047700
P        0.86274547       1.34260710       6.48105493       0.00000000 NULL      -0.07044600       0.01333800       0.01047700
P        2.55842443       3.87074123       4.99870683       0.00000000 NULL       0.07044600       0.01333700      -0.01047600
8
Lattice="3.434831170253319 0.0 0.0 0.0 5.027835151993524 0.0 0.0 0.0 7.610228174707998" Properties=species:S:1:pos:R:3:initial_magmoms:R:1:castep_labels:S:1:forces:R:3 n_minim_iter=13 energy=-44.75983223683 stress="-0.0001140558522103649 0.0 -0.0 0.0 0.002356215860839473 0.0 -0.0 0.0 -0.0005431919472513643" free_energy=-44.75983223683 pbc="T T T"
P        2.57654393       3.84783378       1.16085335       0.00000000 NULL      -0.01887300      -0.00562600      -0.00486500
P        0.85828724       1.33391621       2.64426074       0.00000000 NULL       0.01887300      -0.00562600       0.00486500
P        0.85912835       3.69391894       6.44937483       0.00000000 NULL      -0.01887200       0.00562600       0.00486500
P        2.57570282       1.18000137       4.96596743       0.00000000 NULL       0.01887200       0.00562600      -0.00486500
P        2.57945831       1.21308565       1.15850410       0.00000000 NULL      -0.02913500      -0.00773400       0.00037000
P        0.85537286       3.72700323       2.64660999       0.00000000 NULL       0.02913500      -0.00773500      -0.00037000
P        0.86204273       1.30083193       6.45172407       0.00000000 NULL      -0.02913400       0.00773500      -0.00037000
P        2.57278844       3.81474950       4.96361819       0.00000000 NULL       0.02913400       0.00773500       0.00037000
8
Lattice="3.4322049092230777 0.0 0.0 0.0 5.023550771168504 0.0 0.0 0.0 7.628373469517345" Properties=species:S:1:pos:R:3:initial_magmoms:R:1:castep_labels:S:1:forces:R:3 n_minim_iter=14 energy=-44.760600787862 stress="4.7898795650909945e-05 -0.0 0.0 -0.0 -9.96751128545126e-05 0.0 0.0 0.0 0.00022405992187814539" free_energy=-44.760600787862 pbc="T T T"
P        2.57403982       3.83192184       1.16425533       0.00000000 NULL      -0.00270800      -0.00616300       0.00164300
P        0.85816509       1.32014645       2.64993140       0.00000000 NULL       0.00270800      -0.00616300      -0.00164200
P        0.85793736       3.70340432       6.46411814       0.00000000 NULL      -0.00270800       0.00616400      -0.00164300
P        2.57426755       1.19162893       4.97844207       0.00000000 NULL       0.00270800       0.00616300       0.00164200
P        2.57493361       1.19549738       1.16438993       0.00000000 NULL      -0.00585200       0.00454800      -0.00026800
P        0.85727130       3.70727277       2.64979680       0.00000000 NULL       0.00585200       0.00454800       0.00026800
P        0.85883116       1.31627801       6.46398354       0.00000000 NULL      -0.00585300      -0.00454900       0.00026800
P        2.57337375       3.82805339       4.97857667       0.00000000 NULL       0.00585300      -0.00454800      -0.00026800
