9
Lattice="4.228420000000001 -7.917894608314318e-16 -5.560721672572161e-16 -1.0669776513872613 5.62183396122121 2.200034041872242e-15 -2.0291689130473274 -0.636144323145121 8.606285292555235" Properties=species:S:1:pos:R:3:initial_magmoms:R:1:castep_labels:S:1 n_minim_iter=1 pbc="T T T"
P       -0.43888440      -0.37821242       5.64930423       0.00000000 NULL
P       -0.53629406       3.84951745       4.56011772       0.00000000 NULL
P        0.78910135       4.67895243       3.12686914       0.00000000 NULL
P       -1.55019019       2.67680447       7.71275752       0.00000000 NULL
P       -0.95359480       1.64172366       2.94944110       0.00000000 NULL
P        0.83076736       3.53485338       8.02030570       0.00000000 NULL
P        1.54611817       0.87765346       2.25959828       0.00000000 NULL
P        3.44676008       1.06720085       0.99811308       0.00000000 NULL
P        0.46098623       0.75826497       4.05652954       0.00000000 NULL
9
Lattice="4.234697706123697 -0.0005836596293652007 -0.0010071615262400519 -1.0693377314318486 5.628648634248299 -0.0009531462593434373 -2.0341436208062746 -0.6384668864271335 8.617023466102212" Properties=species:S:1:pos:R:3:initial_magmoms:R:1:castep_labels:S:1 n_minim_iter=2 pbc="T T T"
P       -0.44094775      -0.37969306       5.65627278       0.00000000 NULL
P       -0.53868331       3.85286781       4.56476297       0.00000000 NULL
P        0.78896721       4.68348436       3.12931099       0.00000000 NULL
P       -1.55466289       2.67848151       7.72163316       0.00000000 NULL
P       -0.95604446       1.64364366       2.95287949       0.00000000 NULL
P        0.82955852       3.53727509       8.02882831       0.00000000 NULL
P        1.54769308       0.87795858       2.26134502       0.00000000 NULL
P        3.45154970       1.06771453       0.99795403       0.00000000 NULL
P        0.46072580       0.75826871       4.06141912       0.00000000 NULL
9
Lattice="4.446798195286516 -0.01999556546372279 -0.03559296070166587 -1.1486668882461277 5.859546214533935 -0.03392875193457502 -2.20340168886198 -0.7185660098084571 8.978019893977251" Properties=species:S:1:pos:R:3:initial_magmoms:R:1:castep_labels:S:1 n_minim_iter=3 pbc="T T T"
P       -0.51157936      -0.43063885       5.89041168       0.00000000 NULL
P       -0.61964970       3.96551466       4.72008696       0.00000000 NULL
P        0.78447712       4.83652844       3.21015711       0.00000000 NULL
P       -1.70666166       2.73413378       8.01939046       0.00000000 NULL
P       -1.03931098       1.70864988       3.06814388       0.00000000 NULL
P        0.78794623       3.61832171       8.31410174       0.00000000 NULL
P        1.60073928       0.88810155       2.31912969       0.00000000 NULL
P        3.61347716       1.08530492       0.99149314       0.00000000 NULL
P        0.45143526       0.75782623       4.22575112       0.00000000 NULL
9
Lattice="4.459057014288649 -0.006027696707410209 -0.03514940869427857 -1.133189439687937 5.932286014010617 -0.05322168651125692 -2.2104831660397166 -0.763262392997571 8.99820897720352" Properties=species:S:1:pos:R:3:initial_magmoms:R:1:castep_labels:S:1 n_minim_iter=4 pbc="T T T"
P       -0.51344398      -0.45444839       5.90208388       0.00000000 NULL
P       -0.60798195       3.99521832       4.71713493       0.00000000 NULL
P        0.80236487       4.88736751       3.20043219       0.00000000 NULL
P       -1.70409397       2.73985975       8.02811663       0.00000000 NULL
P       -1.03809038       1.72814324       3.06968541       0.00000000 NULL
P        0.80549552       3.64141850       8.31964761       0.00000000 NULL
P        1.60856143       0.89420589       2.31378045       0.00000000 NULL
P        3.62761261       1.10666664       0.98751237       0.00000000 NULL
P        0.45679155       0.75675723       4.24014703       0.00000000 NULL
9
Lattice="4.43882342149701 0.015556162090549684 -0.0319860376674046 -1.0993872956907635 5.987532323095288 -0.0700072113129832 -2.19758194009962 -0.804962411672041 8.965720149139488" Properties=species:S:1:pos:R:3:initial_magmoms:R:1:castep_labels:S:1 n_minim_iter=5 pbc="T T T"
P       -0.50833183      -0.47444569       5.87852397       0.00000000 NULL
P       -0.58232479       4.01564727       4.68909317       0.00000000 NULL
P        0.82357985       4.92868574       3.17552815       0.00000000 NULL
P       -1.68052967       2.74014500       7.99195203       0.00000000 NULL
P       -1.02477158       1.74429626       3.05402925       0.00000000 NULL
P        0.82905255       3.66053559       8.28015578       0.00000000 NULL
P        1.60828195       0.90055006       2.29638515       0.00000000 NULL
P        3.61759208       1.13163326       0.98087789       0.00000000 NULL
P        0.46237968       0.75659184       4.23167381       0.00000000 NULL
9
Lattice="4.35647671467991 0.08925161629754429 -0.028282323548207516 -0.9806276400539792 6.15717999746215 -0.11561254708000336 -2.161613504352561 -0.9300139205837706 8.821901790071008" Properties=species:S:1:pos:R:3:initial_magmoms:R:1:castep_labels:S:1 n_minim_iter=6 pbc="T T T"
P       -0.49906302      -0.53032654       5.77464835       0.00000000 NULL
P       -0.49994434       4.07924593       4.58248173       0.00000000 NULL
P        0.88619905       5.06091772       3.08523645       0.00000000 NULL
P       -1.60657006       2.74492185       7.84362015       0.00000000 NULL
P       -0.98149369       1.80116700       2.99340709       0.00000000 NULL
P        0.89215560       3.72893187       8.11768956       0.00000000 NULL
P        1.60005096       0.92062836       2.22852211       0.00000000 NULL
P        3.57093819       1.21463146       0.94934305       0.00000000 NULL
P        0.47313377       0.76001967       4.18550949       0.00000000 NULL
9
Lattice="4.296667513274719 0.1366802800479914 -0.07075074023440858 -0.9024776091076003 6.313339327908234 -0.10239674614491494 -2.2264849723992897 -0.9679725191110499 8.634482598433054" Properties=species:S:1:pos:R:3:initial_magmoms:R:1:castep_labels:S:1 n_minim_iter=7 pbc="T T T"
P       -0.55306263      -0.52981746       5.63066000       0.00000000 NULL
P       -0.48901630       4.16468719       4.48219212       0.00000000 NULL
P        0.88345582       5.20074471       3.00553027       0.00000000 NULL
P       -1.63380489       2.80921869       7.67912968       0.00000000 NULL
P       -0.99377629       1.89897268       2.94128429       0.00000000 NULL
P        0.84246668       3.85287793       7.92243788       0.00000000 NULL
P        1.57677046       0.93366457       2.13274191       0.00000000 NULL
P        3.52805666       1.27809826       0.87268851       0.00000000 NULL
P        0.43825348       0.78894657       4.11760036       0.00000000 NULL
9
Lattice="4.195323120174619 0.14394733455805478 -0.10865132560069928 -0.8672430826476174 6.2985533293668965 -0.09766547513840602 -2.2560849775783725 -0.9773919813396315 8.410019384474241" Properties=species:S:1:pos:R:3:initial_magmoms:R:1:castep_labels:S:1 n_minim_iter=8 pbc="T T T"
P       -0.59398550      -0.53186434       5.46571281       0.00000000 NULL
P       -0.50566800       4.14354742       4.35761524       0.00000000 NULL
P        0.83687775       5.18530418       2.90966879       0.00000000 NULL
P       -1.65799834       2.78993184       7.47415587       0.00000000 NULL
P       -1.00653937       1.92680794       2.86917012       0.00000000 NULL
P        0.75396550       3.84445012       7.69032320       0.00000000 NULL
P        1.52899389       0.90879857       2.04098499       0.00000000 NULL
P        3.44221095       1.27691666       0.80075409       0.00000000 NULL
P        0.39492484       0.78277031       4.01609857       0.00000000 NULL
9
Lattice="4.2196328884384515 0.13988457057259582 -0.13534260688809044 -0.878778872374702 6.353478930522782 -0.10433303514084422 -2.3214656406586425 -1.0020592294923372 8.45158874262996" Properties=species:S:1:pos:R:3:initial_magmoms:R:1:castep_labels:S:1 n_minim_iter=9 pbc="T T T"
P       -0.63358066      -0.54782353       5.48593071       0.00000000 NULL
P       -0.54021911       4.16629273       4.36715933       0.00000000 NULL
P        0.81671341       5.22011289       2.90439188       0.00000000 NULL
P       -1.71601068       2.79652340       7.50197118       0.00000000 NULL
P       -1.03548808       1.94783599       2.88222368       0.00000000 NULL
P        0.70251920       3.86060497       7.70377460       0.00000000 NULL
P        1.52459765       0.90390319       2.03224188       0.00000000 NULL
P        3.45649613       1.28068217       0.77468433       0.00000000 NULL
P        0.37216278       0.78065995       4.02932898       0.00000000 NULL
9
Lattice="4.205408220726571 0.13951611568459765 -0.14944054048843297 -0.8756793670406877 6.363309981489884 -0.10846499103337334 -2.3432780894209055 -1.0147557221678474 8.425122181101926" Properties=species:S:1:pos:R:3:initial_magmoms:R:1:castep_labels:S:1 n_minim_iter=10 pbc="T T T"
P       -0.65199949      -0.55610431       5.46342197       0.00000000 NULL
P       -0.55299875       4.16520876       4.34627831       0.00000000 NULL
P        0.80255077       5.22294786       2.88438741       0.00000000 NULL
P       -1.73551023       2.78950246       7.47295787       0.00000000 NULL
P       -1.04447539       1.95517344       2.87242730       0.00000000 NULL
P        0.67145451       3.85693494       7.66574222       0.00000000 NULL
P        1.51279864       0.89644171       2.01438230       0.00000000 NULL
P        3.44272597       1.28039123       0.75452827       0.00000000 NULL
P        0.35778163       0.77658768       4.01415343       0.00000000 NULL
9
Lattice="4.168053277355371 0.13697236944446173 -0.18655318418238193 -0.8696354142771499 6.391455801077804 -0.11984895278257343 -2.4005061604316835 -1.0484108783125459 8.35987329925259" Properties=species:S:1:pos:R:3:initial_magmoms:R:1:castep_labels:S:1 n_minim_iter=11 pbc="T T T"
P       -0.70066333      -0.57845955       5.40700997       0.00000000 NULL
P       -0.58814699       4.16366675       4.29319499       0.00000000 NULL
P        0.76405766       5.23149100       2.83320364       0.00000000 NULL
P       -1.78774972       2.77174488       7.40015247       0.00000000 NULL
P       -1.06844147       1.97481681       2.84781495       0.00000000 NULL
P        0.58822626       3.84730314       7.56937875       0.00000000 NULL
P        1.48102698       0.87630542       1.96897899       0.00000000 NULL
P        3.40622510       1.27884524       0.70199313       0.00000000 NULL
P        0.31955816       0.76555906       3.97562781       0.00000000 NULL
9
Lattice="4.125992673520456 0.1308210451192213 -0.22531195448148242 -0.8672004621443017 6.427206107767931 -0.132539901738237 -2.4582837310059285 -1.0837289949794287 8.292481937351512" Properties=species:S:1:pos:R:3:initial_magmoms:R:1:castep_labels:S:1 n_minim_iter=12 pbc="T T T"
P       -0.75184901      -0.60293403       5.34830347       0.00000000 NULL
P       -0.62769998       4.16620273       4.23764915       0.00000000 NULL
P        0.72072248       5.24403378       2.78040817       0.00000000 NULL
P       -1.84298397       2.75591914       7.32411338       0.00000000 NULL
P       -1.09342491       1.99693064       2.82168932       0.00000000 NULL
P        0.49738753       3.83870174       7.46861916       0.00000000 NULL
P        1.44493853       0.85412298       1.92259044       0.00000000 NULL
P        3.36483914       1.27582572       0.64716006       0.00000000 NULL
P        0.27865484       0.75381659       3.93447375       0.00000000 NULL
9
Lattice="4.080736925026512 0.12194718742187859 -0.2656639580541404 -0.8675789681418435 6.475820977627374 -0.1434408393919579 -2.5173611742810404 -1.1169937468820557 8.221890479099583" Properties=species:S:1:pos:R:3:initial_magmoms:R:1:castep_labels:S:1 n_minim_iter=13 pbc="T T T"
P       -0.80570342      -0.62702376       5.28661492       0.00000000 NULL
P       -0.67105303       4.17904083       4.18134333       0.00000000 NULL
P        0.67387230       5.26684688       2.72845957       0.00000000 NULL
P       -1.90110131       2.74868649       7.24565312       0.00000000 NULL
P       -1.11935676       2.02491486       2.79476881       0.00000000 NULL
P        0.40007586       3.83918909       7.36471112       0.00000000 NULL
P        1.40532664       0.83199953       1.87562101       0.00000000 NULL
P        3.32004161       1.27369169       0.59053822       0.00000000 NULL
P        0.23539345       0.74453778       3.89081126       0.00000000 NULL
9
Lattice="4.0302712531782445 0.10909702960846532 -0.3062578503592298 -0.8719294606610736 6.53731443697835 -0.15145717637643333 -2.5738325491392144 -1.1453715698499916 8.142986713951457" Properties=species:S:1:pos:R:3:initial_magmoms:R:1:castep_labels:S:1 n_minim_iter=14 pbc="T T T"
P       -0.85971093      -0.64916531       5.21907506       0.00000000 NULL
P       -0.71770030       4.20360782       4.12274978       0.00000000 NULL
P        0.62264180       5.30010355       2.67707093       0.00000000 NULL
P       -1.95992959       2.75227951       7.16103045       0.00000000 NULL
P       -1.14543024       2.05967996       2.76555466       0.00000000 NULL
P        0.29747785       3.85016191       7.25471567       0.00000000 NULL
P        1.36210408       0.80994074       1.82788835       0.00000000 NULL
P        3.27010337       1.27180518       0.53311681       0.00000000 NULL
P        0.19057938       0.73862372       3.84296413       0.00000000 NULL
9
Lattice="3.9797399391061727 0.0927926077503795 -0.3457872256141117 -0.8808559555952865 6.6191788107497 -0.15724747081912582 -2.6275860891901823 -1.1704792025926518 8.05713792119298" Properties=species:S:1:pos:R:3:initial_magmoms:R:1:castep_labels:S:1 n_minim_iter=15 pbc="T T T"
P       -0.91235716      -0.67032483       5.14734090       0.00000000 NULL
P       -0.76653046       4.24478939       4.06272959       0.00000000 NULL
P        0.56929372       5.34971506       2.62639554       0.00000000 NULL
P       -2.01871039       2.76958263       7.07133518       0.00000000 NULL
P       -1.17177592       2.10357736       2.73421892       0.00000000 NULL
P        0.19353526       3.87606357       7.14041462       0.00000000 NULL
P        1.31817804       0.78889335       1.78044881       0.00000000 NULL
P        3.21957178       1.27228884       0.47588139       0.00000000 NULL
P        0.14613516       0.73700684       3.79213560       0.00000000 NULL
9
Lattice="3.9269603633900174 0.0747056174734716 -0.3793392942152176 -0.8915851235720166 6.714699047344545 -0.16289546652248607 -2.6678266670093245 -1.193698924590957 7.971520507274578" Properties=species:S:1:pos:R:3:initial_magmoms:R:1:castep_labels:S:1 n_minim_iter=16 pbc="T T T"
P       -0.95650508      -0.69122487       5.07744351       0.00000000 NULL
P       -0.81061564       4.29771614       4.00543806       0.00000000 NULL
P        0.51858590       5.41025395       2.57937459       0.00000000 NULL
P       -2.06688670       2.79602474       6.98299862       0.00000000 NULL
P       -1.19369512       2.15305128       2.70243114       0.00000000 NULL
P        0.09890022       3.91191221       7.03090869       0.00000000 NULL
P        1.27588754       0.76843684       1.73754172       0.00000000 NULL
P        3.16785614       1.27548295       0.42393348       0.00000000 NULL
P        0.10682114       0.73847037       3.74316001       0.00000000 NULL
9
Lattice="3.801656451618907 0.024532508382227234 -0.4450452490866872 -0.9266735053169785 6.977088624316431 -0.18665129011031636 -2.733880666392432 -1.2596284638190471 7.780979453683457" Properties=species:S:1:pos:R:3:initial_magmoms:R:1:castep_labels:S:1 n_minim_iter=17 pbc="T T T"
P       -1.04080843      -0.75046375       4.92476720       0.00000000 NULL
P       -0.90827249       4.44402358       3.87519181       0.00000000 NULL
P        0.40132268       5.57462402       2.46969240       0.00000000 NULL
P       -2.16018770       2.86720596       6.78144172       0.00000000 NULL
P       -1.23847272       2.28098454       2.62623599       0.00000000 NULL
P       -0.10555380       4.00647896       6.78510072       0.00000000 NULL
P        1.18231306       0.71465939       1.64786578       0.00000000 NULL
P        3.04549406       1.28700659       0.31193512       0.00000000 NULL
P        0.02481768       0.74172035       3.63513054       0.00000000 NULL
9
Lattice="3.558914096906113 -0.059668918835480506 -0.49867400782520827 -0.9773699298897817 7.493383523027647 -0.24673773165605223 -2.7138767163593154 -1.387939572906603 7.46415520474866" Properties=species:S:1:pos:R:3:initial_magmoms:R:1:castep_labels:S:1 n_minim_iter=18 pbc="T T T"
P       -1.09854511      -0.86755206       4.69021789       0.00000000 NULL
P       -1.01638410       4.75066413       3.67462847       0.00000000 NULL
P        0.24509429       5.89696118       2.29264828       0.00000000 NULL
P       -2.20158763       3.01126625       6.44508588       0.00000000 NULL
P       -1.26073402       2.51383220       2.48881280       0.00000000 NULL
P       -0.34632094       4.20189922       6.39849595       0.00000000 NULL
P        1.05072107       0.60689407       1.53631317       0.00000000 NULL
P        2.81675981       1.34990894       0.16331766       0.00000000 NULL
P       -0.06608706       0.76299096       3.47361713       0.00000000 NULL
9
Lattice="3.6268893599590264 0.002057415437094133 -0.5331741799480679 -0.9124551116383753 7.717211167902147 -0.2226413974606231 -2.8260033432579803 -1.4210900530813957 7.777920626034412" Properties=species:S:1:pos:R:3:initial_magmoms:R:1:castep_labels:S:1 n_minim_iter=19 pbc="T T T"
P       -1.16256388      -0.87819435       4.89249286       0.00000000 NULL
P       -1.01916890       4.93018541       3.87630244       0.00000000 NULL
P        0.31331834       6.07739200       2.39748910       0.00000000 NULL
P       -2.24453850       3.10924211       6.73351560       0.00000000 NULL
P       -1.26940954       2.59062356       2.60686019       0.00000000 NULL
P       -0.35108690       4.39504290       6.67270652       0.00000000 NULL
P        1.07890338       0.62162681       1.59983731       0.00000000 NULL
P        2.87533894       1.49533593       0.13009586       0.00000000 NULL
P       -0.08793003       0.84238696       3.64200547       0.00000000 NULL
9
Lattice="3.4982282422450006 -0.0032654993193493415 -0.49871199145294437 -0.8870664335380608 7.53731543448915 -0.20980353116498449 -2.693317207920667 -1.3650618572401998 7.5411762402646225" Properties=species:S:1:pos:R:3:initial_magmoms:R:1:castep_labels:S:1 n_minim_iter=20 pbc="T T T"
P       -1.10054628      -0.84593366       4.74480419       0.00000000 NULL
P       -0.97174666       4.83473283       3.77106483       0.00000000 NULL
P        0.31010987       5.93512980       2.34207227       0.00000000 NULL
P       -2.13898101       3.05833055       6.53589249       0.00000000 NULL
P       -1.21555167       2.52791466       2.52927251       0.00000000 NULL
P       -0.31400626       4.30679169       6.48717077       0.00000000 NULL
P        1.04825584       0.61120997       1.56279735       0.00000000 NULL
P        2.77329287       1.46321665       0.14328330       0.00000000 NULL
P       -0.07032372       0.83530906       3.54063382       0.00000000 NULL
9
Lattice="3.5009599097602218 -0.01864621421890612 -0.5028486833340521 -0.9082049329207992 7.584288167439987 -0.20560293469717453 -2.7007337395872524 -1.357724321704107 7.534501094531916" Properties=species:S:1:pos:R:3:initial_magmoms:R:1:castep_labels:S:1 n_minim_iter=21 pbc="T T T"
P       -1.10609658      -0.84284743       4.74042347       0.00000000 NULL
P       -0.99204550       4.86975717       3.77253965       0.00000000 NULL
P        0.29358930       5.96309705       2.33933854       0.00000000 NULL
P       -2.15568678       3.08585128       6.53120014       0.00000000 NULL
P       -1.22682498       2.54763184       2.52803971       0.00000000 NULL
P       -0.33546179       4.33732542       6.47949072       0.00000000 NULL
P        1.04672665       0.60845071       1.55979030       0.00000000 NULL
P        2.76956820       1.46505692       0.13642574       0.00000000 NULL
P       -0.07746811       0.84477723       3.53878334       0.00000000 NULL
9
Lattice="3.4916221136971344 -0.02829044210045018 -0.5049184182714522 -0.9186710238298623 7.614534820023676 -0.2004269475902519 -2.6990143368424193 -1.349119155431418 7.509615383473451" Properties=species:S:1:pos:R:3:initial_magmoms:R:1:castep_labels:S:1 n_minim_iter=22 pbc="T T T"
P       -1.10787772      -0.83838027       4.72468885       0.00000000 NULL
P       -1.00397098       4.89611745       3.76631629       0.00000000 NULL
P        0.28302484       5.97930788       2.33156227       0.00000000 NULL
P       -2.16097698       3.10653628       6.51130456       0.00000000 NULL
P       -1.23076179       2.56010119       2.52078574       0.00000000 NULL
P       -0.35013343       4.36103438       6.45668340       0.00000000 NULL
P        1.04247228       0.60683641       1.55367638       0.00000000 NULL
P        2.75773708       1.46968517       0.12966217       0.00000000 NULL
P       -0.08307076       0.85477093       3.52921062       0.00000000 NULL
9
Lattice="3.4734296814316377 -0.039248513770251195 -0.5115162384652213 -0.9286495833890148 7.683157368033355 -0.18815640879541168 -2.7020642443268477 -1.335076778249884 7.469739096322882" Properties=species:S:1:pos:R:3:initial_magmoms:R:1:castep_labels:S:1 n_minim_iter=23 pbc="T T T"
P       -1.11555555      -0.83016574       4.69957168       0.00000000 NULL
P       -1.02415926       4.95689728       3.76141751       0.00000000 NULL
P        0.27036312       6.01984796       2.31876016       0.00000000 NULL
P       -2.17124188       3.15124847       6.48111697       0.00000000 NULL
P       -1.23638958       2.58675343       2.51036796       0.00000000 NULL
P       -0.37673251       4.41856854       6.41888142       0.00000000 NULL
P        1.03414420       0.60760865       1.54291309       0.00000000 NULL
P        2.73612413       1.48969163       0.11389328       0.00000000 NULL
P       -0.09542879       0.87958756       3.51541865       0.00000000 NULL
9
Lattice="3.436617251953239 -0.0352512873114739 -0.5220511586385936 -0.9140460712016342 7.78303854168029 -0.16408817792958016 -2.706441932436141 -1.3156355545960967 7.42179029096992" Properties=species:S:1:pos:R:3:initial_magmoms:R:1:castep_labels:S:1 n_minim_iter=24 pbc="T T T"
P       -1.12845309      -0.81621583       4.67064207       0.00000000 NULL
P       -1.03869593       5.05577919       3.76892751       0.00000000 NULL
P        0.27437258       6.08199627       2.30528398       0.00000000 NULL
P       -2.17249631       3.21993879       6.45001075       0.00000000 NULL
P       -1.23307977       2.62276539       2.50088672       0.00000000 NULL
P       -0.40132026       4.51780985       6.37421135       0.00000000 NULL
P        1.02087301       0.61876079       1.53028883       0.00000000 NULL
P        2.70091883       1.54198020       0.08858950       0.00000000 NULL
P       -0.11260364       0.92612805       3.50461358       0.00000000 NULL
9
Lattice="3.3973971682810986 -0.06078207768232064 -0.5340847572194539 -0.9380935668619353 7.991274120600164 -0.13579289826104168 -2.70827220014099 -1.2875498898760325 7.404377890009066" Properties=species:S:1:pos:R:3:initial_magmoms:R:1:castep_labels:S:1 n_minim_iter=25 pbc="T T T"
P       -1.14368778      -0.80219561       4.66742087       0.00000000 NULL
P       -1.09645595       5.24921744       3.81936975       0.00000000 NULL
P        0.26472961       6.18057450       2.29246383       0.00000000 NULL
P       -2.19147199       3.34939185       6.44856451       0.00000000 NULL
P       -1.24638444       2.69304977       2.50119997       0.00000000 NULL
P       -0.45463575       4.68431976       6.34704969       0.00000000 NULL
P        1.00914894       0.63145420       1.52571608       0.00000000 NULL
P        2.64945440       1.61874048       0.04552483       0.00000000 NULL
P       -0.13941133       0.99087887       3.52705455       0.00000000 NULL
9
Lattice="3.3214489471441118 -0.03638819053019195 -0.5253180047482364 -0.8864966493717574 7.83309787706477 -0.13091540551002762 -2.6576521318039563 -1.2712008417201752 7.254558935673639" Properties=species:S:1:pos:R:3:initial_magmoms:R:1:castep_labels:S:1 n_minim_iter=26 pbc="T T T"
P       -1.12518388      -0.79184370       4.57338350       0.00000000 NULL
P       -1.06066006       5.15810575       3.75202900       0.00000000 NULL
P        0.28790814       6.05570841       2.24462471       0.00000000 NULL
P       -2.13452498       3.28448288       6.31906101       0.00000000 NULL
P       -1.21018529       2.62525550       2.45019703       0.00000000 NULL
P       -0.42974734       4.59988806       6.21199902       0.00000000 NULL
P        0.98918645       0.63926016       1.49394590       0.00000000 NULL
P        2.59434304       1.61268841       0.03768313       0.00000000 NULL
P       -0.13494856       0.97637459       3.46066568       0.00000000 NULL
9
Lattice="3.380311286286924 -0.04707575680291436 -0.5362261983195774 -0.9155591652544179 7.957788385475569 -0.1322584348438888 -2.706493500453856 -1.2861460621424115 7.360953627089799" Properties=species:S:1:pos:R:3:initial_magmoms:R:1:castep_labels:S:1 n_minim_iter=27 pbc="T T T"
P       -1.14721600      -0.80075331       4.64158804       0.00000000 NULL
P       -1.09170511       5.23775305       3.80884419       0.00000000 NULL
P        0.28317474       6.14414231       2.27416727       0.00000000 NULL
P       -2.18118167       3.33615699       6.41130396       0.00000000 NULL
P       -1.23836988       2.67291944       2.48655419       0.00000000 NULL
P       -0.44901186       4.67283401       6.29984877       0.00000000 NULL
P        1.00558675       0.64441079       1.51383094       0.00000000 NULL
P        2.63688515       1.63184221       0.03213255       0.00000000 NULL
P       -0.14068418       0.98881040       3.51262776       0.00000000 NULL
