16
Lattice="4.9997003251679715 0.0 0.0 0.0 5.078871655885789 0.0 0.0 0.0 10.114773672052173" Properties=species:S:1:pos:R:3:initial_magmoms:R:1:castep_labels:S:1:forces:R:3 n_minim_iter=1 energy=-89.418109711292 stress="-0.0007775183863127784 -0.0 0.0 -0.0 0.0006885534632920123 -0.0 0.0 -0.0 0.0021603486580539376" free_energy=-89.418109711292 pbc="T T T"
P        3.72825642       2.65424997       6.22270090       0.00000000 NULL       0.01414600      -0.01826300      -0.04073600
P        3.72825642       2.42462169       3.89207277       0.00000000 NULL       0.01414600       0.01826300       0.04073600
P        3.72825642       0.11481414       3.89207277       0.00000000 NULL       0.01414600      -0.01826400       0.04073600
P        3.72825642       4.96405752       6.22270090       0.00000000 NULL       0.01414600       0.01826400      -0.04073600
P        1.26431802       5.19532133       8.94569166       0.00000000 NULL      -0.00543800      -0.05645800       0.07184300
P        1.26431802      -0.11644968       1.16908201       0.00000000 NULL      -0.00543800       0.05645800      -0.07184300
P        1.26431802       2.65588551       1.16908201       0.00000000 NULL      -0.00543800      -0.05645800      -0.07184300
P        1.26431802       2.42298615       8.94569166       0.00000000 NULL      -0.00543800       0.05645800       0.07184300
P        1.21180457       4.96600837       6.21814034       0.00000000 NULL      -0.00960500       0.01222600       0.00460600
P        1.21180457       0.11286329       3.89663334       0.00000000 NULL      -0.00960500      -0.01222600      -0.00460600
P        1.21180457       2.42657254       3.89663334       0.00000000 NULL      -0.00960500       0.01222600      -0.00460600
P        1.21180457       2.65229912       6.21814034       0.00000000 NULL      -0.00960500      -0.01222600       0.00460600
P        3.69118878       2.63970264       1.16501294       0.00000000 NULL       0.00089700       0.06501500      -0.01644100
P        3.69118878       2.43916902       8.94976074       0.00000000 NULL       0.00089700      -0.06501600       0.01644100
P        3.69118878       0.10026681       8.94976074       0.00000000 NULL       0.00089700       0.06501500       0.01644100
P        3.69118878       4.97860484       1.16501294       0.00000000 NULL       0.00089700      -0.06501500      -0.01644100
16
Lattice="5.002005116544032 0.0 0.0 0.0 5.076799162388811 0.0 0.0 0.0 10.101829363048699" Properties=species:S:1:pos:R:3:initial_magmoms:R:1:castep_labels:S:1:forces:R:3 n_minim_iter=2 energy=-89.41861115031 stress="-6.22155269189434e-05 -0.0 -0.0 -0.0 -0.0003941096348060888 0.0 -0.0 0.0 -0.0003321669830052109" free_energy=-89.41861115031 pbc="T T T"
P        3.73000776       2.65312474       6.21464356       0.00000000 NULL       0.01422000      -0.02189200      -0.02948700
P        3.73000776       2.42367443       3.88718581       0.00000000 NULL       0.01422000       0.02189200       0.02948700
P        3.73000776       0.11472515       3.88718581       0.00000000 NULL       0.01422000      -0.02189200       0.02948700
P        3.73000776       4.96207401       6.21464356       0.00000000 NULL       0.01422000       0.02189200      -0.02948700
P        1.26488829       5.19307108       8.93440907       0.00000000 NULL      -0.00539500      -0.05929700       0.06019900
P        1.26488829      -0.11627192       1.16742030       0.00000000 NULL      -0.00539500       0.05929700      -0.06019900
P        1.26488829       2.65467150       1.16742030       0.00000000 NULL      -0.00539500      -0.05929700      -0.06019900
P        1.26488829       2.42212767       8.93440907       0.00000000 NULL      -0.00539500       0.05929700       0.06019900
P        1.21234102       4.96401013       6.21019333       0.00000000 NULL      -0.00970300       0.01576600       0.01527500
P        1.21234102       0.11278903       3.89163603       0.00000000 NULL      -0.00970300      -0.01576600      -0.01527500
P        1.21234102       2.42561055       3.89163603       0.00000000 NULL      -0.00970300       0.01576600      -0.01527500
P        1.21234102       2.65118861       6.21019333       0.00000000 NULL      -0.00970300      -0.01576600       0.01527500
P        3.69289244       2.63877546       1.16348412       0.00000000 NULL       0.00087800       0.06062800      -0.00562000
P        3.69289244       2.43802370       8.93834524       0.00000000 NULL       0.00087800      -0.06062800       0.00562000
P        3.69289244       0.10037588       8.93834524       0.00000000 NULL       0.00087800       0.06062800       0.00562000
P        3.69289244       4.97642328       1.16348412       0.00000000 NULL       0.00087800      -0.06062800      -0.00562000
16
Lattice="5.005615477628495 0.0 0.0 0.0 5.082004677642117 0.0 0.0 0.0 10.100473861652844" Properties=species:S:1:pos:R:3:initial_magmoms:R:1:castep_labels:S:1:forces:R:3 n_minim_iter=3 energy=-89.419105803228 stress="0.001492129423971281 -0.0 0.0 -0.0 0.001764681716834185 -0.0 0.0 -0.0 -0.00042099073995402453" free_energy=-89.419105803228 pbc="T T T"
P        3.73294049       2.65548404       6.21328502       0.00000000 NULL       0.01497000      -0.01018700      -0.02765500
P        3.73294049       2.42652064       3.88718884       0.00000000 NULL       0.01497000       0.01018700       0.02765500
P        3.73294049       0.11448170       3.88718884       0.00000000 NULL       0.01497000      -0.01018800       0.02765500
P        3.73294049       4.96752298       6.21328502       0.00000000 NULL       0.01497000       0.01018800      -0.02765500
P        1.26570986       5.19740056       8.93425347       0.00000000 NULL      -0.00216100      -0.04069400       0.05350700
P        1.26570986      -0.11539588       1.16622039       0.00000000 NULL      -0.00216100       0.04069400      -0.05350700
P        1.26570986       2.65639822       1.16622039       0.00000000 NULL      -0.00216100      -0.04069300      -0.05350700
P        1.26570986       2.42560646       8.93425347       0.00000000 NULL      -0.00216100       0.04069300       0.05350700
P        1.21305209       4.96935777       6.20959129       0.00000000 NULL      -0.01055500       0.00388900       0.00865300
P        1.21305209       0.11264691       3.89088257       0.00000000 NULL      -0.01055500      -0.00388900      -0.00865300
P        1.21305209       2.42835543       3.89088257       0.00000000 NULL      -0.01055500       0.00388800      -0.00865300
P        1.21305209       2.65364925       6.20959129       0.00000000 NULL      -0.01055500      -0.00388800       0.00865300
P        3.69557281       2.64251667       1.16320671       0.00000000 NULL      -0.00225300       0.06249100      -0.00918900
P        3.69557281       2.43948800       8.93726716       0.00000000 NULL      -0.00225300      -0.06249100       0.00918900
P        3.69557281       0.10151434       8.93726716       0.00000000 NULL      -0.00225300       0.06249000       0.00918900
P        3.69557281       4.98049034       1.16320671       0.00000000 NULL      -0.00225300      -0.06249000      -0.00918900
16
Lattice="4.999537660657749 0.0 0.0 0.0 5.0790601572981835 0.0 0.0 0.0 10.1064470981916" Properties=species:S:1:pos:R:3:initial_magmoms:R:1:castep_labels:S:1:forces:R:3 n_minim_iter=4 energy=-89.421991494537 stress="-0.0012013285682653978 -0.0 0.0 -0.0 0.0008411637951068811 0.0 0.0 0.0 -0.0008572178778225912" free_energy=-89.421991494537 pbc="T T T"
P        3.72999529       2.65173483       6.21356000       0.00000000 NULL       0.01405000      -0.00374000      -0.00514400
P        3.72999529       2.42732533       3.89288710       0.00000000 NULL       0.01405000       0.00374000       0.00514400
P        3.72999529       0.11220475       3.89288710       0.00000000 NULL       0.01405000      -0.00374000       0.00514400
P        3.72999529       4.96685541       6.21356000       0.00000000 NULL       0.01405000       0.00374000      -0.00514400
P        1.26361937       5.18811669       8.94627341       0.00000000 NULL      -0.00788500       0.00642900      -0.00291300
P        1.26361937      -0.10905654       1.16017368       0.00000000 NULL      -0.00788500      -0.00642900       0.00291300
P        1.26361937       2.64858662       1.16017368       0.00000000 NULL      -0.00788500       0.00642800       0.00291300
P        1.26361937       2.43047354       8.94627341       0.00000000 NULL      -0.00788500      -0.00642800      -0.00291300
P        1.21049198       4.96800868       6.21470840       0.00000000 NULL      -0.01023300      -0.00480600      -0.02391800
P        1.21049198       0.11105148       3.89173870       0.00000000 NULL      -0.01023300       0.00480600       0.02391800
P        1.21049198       2.42847860       3.89173870       0.00000000 NULL      -0.01023300      -0.00480600       0.02391800
P        1.21049198       2.65058156       6.21470840       0.00000000 NULL      -0.01023300       0.00480600      -0.02391800
P        3.69113922       2.64779759       1.16306730       0.00000000 NULL       0.00406800       0.00981100      -0.02181900
P        3.69113922       2.43126257       8.94337980       0.00000000 NULL       0.00406800      -0.00981100       0.02181900
P        3.69113922       0.10826751       8.94337980       0.00000000 NULL       0.00406800       0.00981100       0.02181900
P        3.69113922       4.97079265       1.16306730       0.00000000 NULL       0.00406800      -0.00981100      -0.02181900
16
Lattice="5.0027990505168844 0.0 0.0 0.0 5.076201547749636 0.0 0.0 0.0 10.111466415947223" Properties=species:S:1:pos:R:3:initial_magmoms:R:1:castep_labels:S:1:forces:R:3 n_minim_iter=5 energy=-89.422234749728 stress="4.7900388446564206e-05 -0.0 0.0 -0.0 -4.015065080358349e-05 -0.0 0.0 -0.0 -0.00012804591643276675" free_energy=-89.422234749728 pbc="T T T"
P        3.73259043       2.65005407       6.21635628       0.00000000 NULL       0.01469400      -0.00745500      -0.00758100
P        3.73259043       2.42614748       3.89511014       0.00000000 NULL       0.01469400       0.00745500       0.00758100
P        3.73259043       0.11195330       3.89511014       0.00000000 NULL       0.01469400      -0.00745600       0.00758100
P        3.73259043       4.96424825       6.21635628       0.00000000 NULL       0.01469400       0.00745600      -0.00758100
P        1.26438011       5.18470189       8.95125894       0.00000000 NULL      -0.00573200       0.00585400      -0.00309800
P        1.26438011      -0.10850035       1.16020747       0.00000000 NULL      -0.00573200      -0.00585400       0.00309800
P        1.26438011       2.64660112       1.16020747       0.00000000 NULL      -0.00573200       0.00585500       0.00309800
P        1.26438011       2.42960043       8.95125894       0.00000000 NULL      -0.00573200      -0.00585500      -0.00309800
P        1.21116931       4.96532565       6.21785571       0.00000000 NULL      -0.01091900      -0.00122200      -0.03030400
P        1.21116931       0.11087590       3.89361071       0.00000000 NULL      -0.01091900       0.00122200       0.03030400
P        1.21116931       2.42722487       3.89361071       0.00000000 NULL      -0.01091900      -0.00122300       0.03030400
P        1.21116931       2.64897667       6.21785571       0.00000000 NULL      -0.01091900       0.00122300      -0.03030400
P        3.69356106       2.64688403       1.16352574       0.00000000 NULL       0.00195800       0.00103400      -0.02673800
P        3.69356106       2.42931752       8.94794068       0.00000000 NULL       0.00195800      -0.00103400       0.02673800
P        3.69356106       0.10878325       8.94794068       0.00000000 NULL       0.00195800       0.00103400       0.02673800
P        3.69356106       4.96741830       1.16352574       0.00000000 NULL       0.00195800      -0.00103400      -0.02673800
16
Lattice="5.003552869244666 0.0 0.0 0.0 5.076222941926853 0.0 0.0 0.0 10.126090170332088" Properties=species:S:1:pos:R:3:initial_magmoms:R:1:castep_labels:S:1:forces:R:3 n_minim_iter=6 energy=-89.423468747281 stress="-4.051415068001985e-05 0.0 0.0 0.0 -8.297235849439766e-05 -0.0 0.0 -0.0 -0.00024895595662588016" free_energy=-89.423468747281 pbc="T T T"
P        3.73762597       2.64726829       6.22188337       0.00000000 NULL       0.01451200       0.01269500      -0.01758500
P        3.73762597       2.42895465       3.90420680       0.00000000 NULL       0.01451200      -0.01269500       0.01758500
P        3.73762597       0.10915682       3.90420680       0.00000000 NULL       0.01451200       0.01269500       0.01758500
P        3.73762597       4.96706612       6.22188337       0.00000000 NULL       0.01451200      -0.01269500      -0.01758500
P        1.26283711       5.18377514       8.96621009       0.00000000 NULL      -0.00412900       0.01670400       0.01781300
P        1.26283711      -0.10755220       1.15988008       0.00000000 NULL      -0.00412900      -0.01670400      -0.01781300
P        1.26283711       2.64566367       1.15988008       0.00000000 NULL      -0.00412900       0.01670400      -0.01781300
P        1.26283711       2.43055927       8.96621009       0.00000000 NULL      -0.00412900      -0.01670400       0.01781300
P        1.20806592       4.96560826       6.21938079       0.00000000 NULL      -0.01131400      -0.00563200       0.00914400
P        1.20806592       0.11061468       3.90670938       0.00000000 NULL      -0.01131400       0.00563200      -0.00914400
P        1.20806592       2.42749679       3.90670938       0.00000000 NULL      -0.01131400      -0.00563200      -0.00914400
P        1.20806592       2.64872615       6.21938079       0.00000000 NULL      -0.01131400       0.00563200       0.00914400
P        3.69466415       2.64991383       1.15776575       0.00000000 NULL       0.00093100      -0.01439300       0.00586500
P        3.69466415       2.42630912       8.96832442       0.00000000 NULL       0.00093100       0.01439300      -0.00586500
P        3.69466415       0.11180235       8.96832442       0.00000000 NULL       0.00093100      -0.01439300      -0.00586500
P        3.69466415       4.96442059       1.15776575       0.00000000 NULL       0.00093100       0.01439300       0.00586500
16
Lattice="5.004760910374708 0.0 0.0 0.0 5.078475752526442 0.0 0.0 0.0 10.142839952378091" Properties=species:S:1:pos:R:3:initial_magmoms:R:1:castep_labels:S:1:forces:R:3 n_minim_iter=7 energy=-89.424557300921 stress="-0.0001644322860559547 -0.0 0.0 -0.0 -0.00013064589276632588 -0.0 0.0 -0.0 -0.0005448104405887907" free_energy=-89.424557300921 pbc="T T T"
P        3.74607337       2.64947212       6.22431694       0.00000000 NULL       0.01233200       0.01644500       0.01715100
P        3.74607337       2.42900364       3.91852301       0.00000000 NULL       0.01233200      -0.01644500      -0.01715100
P        3.74607337       0.11023424       3.91852301       0.00000000 NULL       0.01233200       0.01644500      -0.01715100
P        3.74607337       4.96824151       6.22431694       0.00000000 NULL       0.01233200      -0.01644500       0.01715100
P        1.26066221       5.18959081       8.98782585       0.00000000 NULL      -0.00064700       0.00181400      -0.00475400
P        1.26066221      -0.11111506       1.15501410       0.00000000 NULL      -0.00064700      -0.00181400       0.00475400
P        1.26066221       2.65035294       1.15501410       0.00000000 NULL      -0.00064700       0.00181500       0.00475400
P        1.26066221       2.42812282       8.98782585       0.00000000 NULL      -0.00064700      -0.00181500      -0.00475400
P        1.20264271       4.96652803       6.22563654       0.00000000 NULL      -0.01021900      -0.00171500       0.00468300
P        1.20264271       0.11194773       3.91720342       0.00000000 NULL      -0.01021900       0.00171500      -0.00468300
P        1.20264271       2.42729015       3.91720342       0.00000000 NULL      -0.01021900      -0.00171600      -0.00468300
P        1.20264271       2.65118560       6.22563654       0.00000000 NULL      -0.01021900       0.00171600       0.00468300
P        3.69620609       2.65000686       1.15475972       0.00000000 NULL      -0.00146500       0.00612800       0.00409600
P        3.69620609       2.42846889       8.98808023       0.00000000 NULL      -0.00146500      -0.00612800      -0.00409600
P        3.69620609       0.11076899       8.98808023       0.00000000 NULL      -0.00146500       0.00612800      -0.00409600
P        3.69620609       4.96770676       1.15475972       0.00000000 NULL      -0.00146500      -0.00612800       0.00409600
16
Lattice="5.005365643640253 0.0 0.0 0.0 5.081962467277311 0.0 0.0 0.0 10.1472277989928" Properties=species:S:1:pos:R:3:initial_magmoms:R:1:castep_labels:S:1:forces:R:3 n_minim_iter=8 energy=-89.425065308459 stress="-0.00038986370111598255 -0.0 -0.0 -0.0 -0.00017623869386630277 0.0 -0.0 0.0 -0.000547971001548689" free_energy=-89.425065308459 pbc="T T T"
P        3.75332753       2.65591298       6.22755125       0.00000000 NULL       0.00911700      -0.01118100       0.00039600
P        3.75332753       2.42604949       3.91967655       0.00000000 NULL       0.00911700       0.01118100      -0.00039600
P        3.75332753       0.11493175       3.91967655       0.00000000 NULL       0.00911700      -0.01118000      -0.00039600
P        3.75332753       4.96703072       6.22755125       0.00000000 NULL       0.00911700       0.01118000       0.00039600
P        1.25965024       5.19460118       8.99427161       0.00000000 NULL       0.00146800       0.00352500      -0.01312400
P        1.25965024      -0.11263871       1.15295619       0.00000000 NULL       0.00146800      -0.00352500       0.01312400
P        1.25965024       2.65361994       1.15295619       0.00000000 NULL       0.00146800       0.00352400       0.01312400
P        1.25965024       2.42834253       8.99427161       0.00000000 NULL       0.00146800      -0.00352400      -0.01312400
P        1.19740192       4.96902002       6.22679050       0.00000000 NULL      -0.00787200      -0.00593100       0.00766800
P        1.19740192       0.11294245       3.92043730       0.00000000 NULL      -0.00787200       0.00593100      -0.00766800
P        1.19740192       2.42803879       3.92043730       0.00000000 NULL      -0.00787200      -0.00593000      -0.00766800
P        1.19740192       2.65392368       6.22679050       0.00000000 NULL      -0.00787200       0.00593000       0.00766800
P        3.69640204       2.65383291       1.15308938       0.00000000 NULL      -0.00271300       0.00014800       0.01411900
P        3.69640204       2.42812955       8.99413842       0.00000000 NULL      -0.00271300      -0.00014800      -0.01411900
P        3.69640204       0.11285168       8.99413842       0.00000000 NULL      -0.00271300       0.00014900      -0.01411900
P        3.69640204       4.96911079       1.15308938       0.00000000 NULL      -0.00271300      -0.00014900       0.01411900
16
Lattice="5.006200367387109 0.0 0.0 0.0 5.084319357533083 0.0 0.0 0.0 10.147417442969996" Properties=species:S:1:pos:R:3:initial_magmoms:R:1:castep_labels:S:1:forces:R:3 n_minim_iter=9 energy=-89.42547994223 stress="-0.0007089499362739306 -0.0 -0.0 -0.0 -0.00024945466874626916 0.0 -0.0 0.0 -0.0003513969538322426" free_energy=-89.42547994223 pbc="T T T"
P        3.76185181       2.65695065       6.22717785       0.00000000 NULL       0.00380300      -0.00699800       0.00948100
P        3.76185181       2.42736871       3.92023960       0.00000000 NULL       0.00380300       0.00699800      -0.00948100
P        3.76185181       0.11479097       3.92023960       0.00000000 NULL       0.00380300      -0.00699700      -0.00948100
P        3.76185181       4.96952839       6.22717785       0.00000000 NULL       0.00380300       0.00699700       0.00948100
P        1.25963183       5.19863595       8.99355762       0.00000000 NULL       0.00447400      -0.00267500      -0.00292200
P        1.25963183      -0.11431659       1.15385982       0.00000000 NULL       0.00447400       0.00267500       0.00292200
P        1.25963183       2.65647627       1.15385982       0.00000000 NULL       0.00447400      -0.00267500       0.00292200
P        1.25963183       2.42784309       8.99355762       0.00000000 NULL       0.00447400       0.00267500      -0.00292200
P        1.19116430       4.96893959       6.22681773       0.00000000 NULL      -0.00329200       0.01085500       0.01062000
P        1.19116430       0.11537977       3.92059971       0.00000000 NULL      -0.00329200      -0.01085500      -0.01062000
P        1.19116430       2.42677991       3.92059971       0.00000000 NULL      -0.00329200       0.01085600      -0.01062000
P        1.19116430       2.65753945       6.22681773       0.00000000 NULL      -0.00329200      -0.01085600       0.01062000
P        3.69578635       2.65742076       1.15436868       0.00000000 NULL      -0.00498500      -0.01056600      -0.00068800
P        3.69578635       2.42689860       8.99304876       0.00000000 NULL      -0.00498500       0.01056600       0.00068800
P        3.69578635       0.11526108       8.99304876       0.00000000 NULL      -0.00498500      -0.01056600       0.00068800
P        3.69578635       4.96905828       1.15436868       0.00000000 NULL      -0.00498500       0.01056600      -0.00068800
16
Lattice="5.008708094400883 0.0 0.0 0.0 5.082666777389075 0.0 0.0 0.0 10.14721134427116" Properties=species:S:1:pos:R:3:initial_magmoms:R:1:castep_labels:S:1:forces:R:3 n_minim_iter=10 energy=-89.42598050403 stress="-0.0011223907339291922 0.0 0.0 0.0 -0.0003046566557226579 -0.0 0.0 -0.0 -3.0968910365708554e-06" free_energy=-89.42598050403 pbc="T T T"
P        3.77480155       2.65330650       6.22944713       0.00000000 NULL      -0.00173700       0.00170500      -0.00428500
P        3.77480155       2.42936027       3.91776422       0.00000000 NULL      -0.00173700      -0.00170500       0.00428500
P        3.77480155       0.11197311       3.91776422       0.00000000 NULL      -0.00173700       0.00170500       0.00428500
P        3.77480155       4.97069366       6.22944713       0.00000000 NULL      -0.00173700      -0.00170400      -0.00428500
P        1.26243880       5.19781529       8.99283744       0.00000000 NULL       0.00670900      -0.01802900      -0.00695300
P        1.26243880      -0.11514851       1.15437390       0.00000000 NULL       0.00670900       0.01802900       0.00695300
P        1.26243880       2.65648190       1.15437390       0.00000000 NULL       0.00670900      -0.01802900       0.00695300
P        1.26243880       2.42618488       8.99283744       0.00000000 NULL       0.00670900       0.01802900      -0.00695300
P        1.18267844       4.96933909       6.22987515       0.00000000 NULL       0.00144900       0.01056800      -0.00657800
P        1.18267844       0.11332768       3.91733620       0.00000000 NULL       0.00144900      -0.01056800       0.00657800
P        1.18267844       2.42800571       3.91733620       0.00000000 NULL       0.00144900       0.01056800       0.00657800
P        1.18267844       2.65466107       6.22987515       0.00000000 NULL       0.00144900      -0.01056800      -0.00657800
P        3.69347962       2.65508213       1.15359964       0.00000000 NULL      -0.00642100      -0.00488200       0.01343800
P        3.69347962       2.42758465       8.99361170       0.00000000 NULL      -0.00642100       0.00488200      -0.01343800
P        3.69347962       0.11374874       8.99361170       0.00000000 NULL      -0.00642100      -0.00488200      -0.01343800
P        3.69347962       4.96891804       1.15359964       0.00000000 NULL      -0.00642100       0.00488200       0.01343800
16
Lattice="5.011608103739616 0.0 0.0 0.0 5.079951028588206 0.0 0.0 0.0 10.147012213126335" Properties=species:S:1:pos:R:3:initial_magmoms:R:1:castep_labels:S:1:forces:R:3 n_minim_iter=11 energy=-89.426396638134 stress="-0.0014146248772850584 -0.0 -0.0 -0.0 -0.0003519529713297874 0.0 -0.0 0.0 0.00022920298539855598" free_energy=-89.426396638134 pbc="T T T"
P        3.78504233       2.65142811       6.22976089       0.00000000 NULL      -0.00910200      -0.01032900       0.00378400
P        3.78504233       2.42852292       3.91725133       0.00000000 NULL      -0.00910200       0.01032900      -0.00378400
P        3.78504233       0.11145260       3.91725133       0.00000000 NULL      -0.00910200      -0.01032900      -0.00378400
P        3.78504233       4.96849843       6.22976089       0.00000000 NULL      -0.00910200       0.01032900       0.00378400
P        1.26657076       5.19275681       8.99083999       0.00000000 NULL       0.00991000      -0.01132000       0.00342200
P        1.26657076      -0.11280578       1.15617222       0.00000000 NULL       0.00991000       0.01132000      -0.00342200
P        1.26657076       2.65278129       1.15617222       0.00000000 NULL       0.00991000      -0.01132000      -0.00342200
P        1.26657076       2.42716973       8.99083999       0.00000000 NULL       0.00991000       0.01132000       0.00342200
P        1.17674916       4.96991308       6.22999114       0.00000000 NULL       0.00806700       0.00074600       0.00400400
P        1.17674916       0.11003794       3.91702107       0.00000000 NULL       0.00806700      -0.00074600      -0.00400400
P        1.17674916       2.42993757       3.91702107       0.00000000 NULL       0.00806700       0.00074600      -0.00400400
P        1.17674916       2.65001346       6.22999114       0.00000000 NULL       0.00806700      -0.00074600       0.00400400
P        3.69077666       2.65113987       1.15586288       0.00000000 NULL      -0.00887500       0.00111000      -0.00124000
P        3.69077666       2.42881116       8.99114933       0.00000000 NULL      -0.00887500      -0.00111000       0.00124000
P        3.69077666       0.11116436       8.99114933       0.00000000 NULL      -0.00887500       0.00111000       0.00124000
P        3.69077666       4.96878667       1.15586288       0.00000000 NULL      -0.00887500      -0.00111000      -0.00124000
16
Lattice="5.023343945020085 0.0 0.0 0.0 5.075479730888483 0.0 0.0 0.0 10.141078839046179" Properties=species:S:1:pos:R:3:initial_magmoms:R:1:castep_labels:S:1:forces:R:3 n_minim_iter=12 energy=-89.427177787286 stress="-0.0008119718748709222 -0.0 0.0 -0.0 -0.00015706477011769149 -0.0 0.0 -0.0 0.0005965444507006337" free_energy=-89.427177787286 pbc="T T T"
P        3.80339177       2.64469486       6.23156896       0.00000000 NULL      -0.00438200      -0.00136900      -0.01538700
P        3.80339177       2.43078487       3.90950988       0.00000000 NULL      -0.00438200       0.00136900       0.01538700
P        3.80339177       0.10695500       3.90950988       0.00000000 NULL      -0.00438200      -0.00137000       0.01538700
P        3.80339177       4.96852474       6.23156896       0.00000000 NULL      -0.00438200       0.00137000      -0.01538700
P        1.28831560       5.18177953       8.98253593       0.00000000 NULL      -0.00239400      -0.00087200      -0.00086800
P        1.28831560      -0.10629979       1.15854291       0.00000000 NULL      -0.00239400       0.00087200       0.00086800
P        1.28831560       2.64403966       1.15854291       0.00000000 NULL      -0.00239400      -0.00087200       0.00086800
P        1.28831560       2.43144007       8.98253593       0.00000000 NULL      -0.00239400       0.00087200      -0.00086800
P        1.17219606       4.96607766       6.22958655       0.00000000 NULL       0.00149200       0.01920200      -0.00508900
P        1.17219606       0.10940207       3.91149229       0.00000000 NULL       0.00149200      -0.01920200       0.00508900
P        1.17219606       2.42833779       3.91149229       0.00000000 NULL       0.00149200       0.01920200       0.00508900
P        1.17219606       2.64714194       6.22958655       0.00000000 NULL       0.00149200      -0.01920200      -0.00508900
P        3.67846586       2.64273218       1.16017550       0.00000000 NULL       0.00528300       0.00889300      -0.00611700
P        3.67846586       2.43274755       8.98090334       0.00000000 NULL       0.00528300      -0.00889300       0.00611700
P        3.67846586       0.10499232       8.98090334       0.00000000 NULL       0.00528300       0.00889300       0.00611700
P        3.67846586       4.97048741       1.16017550       0.00000000 NULL       0.00528300      -0.00889300      -0.00611700
16
Lattice="5.024083934145909 0.0 0.0 0.0 5.075776384986073 0.0 0.0 0.0 10.140321867095244" Properties=species:S:1:pos:R:3:initial_magmoms:R:1:castep_labels:S:1:forces:R:3 n_minim_iter=13 energy=-89.427369149079 stress="-0.00039417669004543555 0.0 0.0 0.0 -4.574816288862457e-05 0.0 0.0 0.0 0.0005013735687667096" free_energy=-89.427369149079 pbc="T T T"
P        3.80236558       2.64500484       6.22975358       0.00000000 NULL       0.00046500      -0.00156700      -0.00811700
P        3.80236558       2.43077154       3.91056829       0.00000000 NULL       0.00046500       0.00156700       0.00811700
P        3.80236558       0.10711665       3.91056829       0.00000000 NULL       0.00046500      -0.00156600       0.00811700
P        3.80236558       4.96865974       6.22975358       0.00000000 NULL       0.00046500       0.00156600      -0.00811700
P        1.28934476       5.18320047       8.98083482       0.00000000 NULL      -0.00442100      -0.00696700       0.00390100
P        1.28934476      -0.10742408       1.15948705       0.00000000 NULL      -0.00442100       0.00696700      -0.00390100
P        1.28934476       2.64531227       1.15948705       0.00000000 NULL      -0.00442100      -0.00696800      -0.00390100
P        1.28934476       2.43046411       8.98083482       0.00000000 NULL      -0.00442100       0.00696800       0.00390100
P        1.17323240       4.96878063       6.22964862       0.00000000 NULL      -0.00240600       0.00136900      -0.00696700
P        1.17323240       0.10699575       3.91067325       0.00000000 NULL      -0.00240600      -0.00136900       0.00696700
P        1.17323240       2.43089244       3.91067325       0.00000000 NULL      -0.00240600       0.00137000       0.00696700
P        1.17323240       2.64488395       6.22964862       0.00000000 NULL      -0.00240600      -0.00137000      -0.00696700
P        3.67889113       2.64432804       1.15972171       0.00000000 NULL       0.00636300       0.00009600      -0.00607100
P        3.67889113       2.43144835       8.98060016       0.00000000 NULL       0.00636300      -0.00009600       0.00607100
P        3.67889113       0.10643984       8.98060016       0.00000000 NULL       0.00636300       0.00009700       0.00607100
P        3.67889113       4.96933654       1.15972171       0.00000000 NULL       0.00636300      -0.00009700      -0.00607100
