8
Lattice="2.98709 0.0 0.0 0.0 7.735879999999999 0.0 0.0 0.0 7.735879999999999" Properties=species:S:1:pos:R:3:initial_magmoms:R:1:castep_labels:S:1 n_minim_iter=1 pbc="T T T"
P        0.68348234       2.23942354       7.70602724       0.00000000 NULL
P        2.17702734       5.49645646       0.02985276       0.00000000 NULL
P        2.92379984       7.70602724       5.49645646       0.00000000 NULL
P        1.43025484       0.02985276       2.23942354       0.00000000 NULL
P        0.05122381       3.67217582       2.53579903       0.00000000 NULL
P        1.54476881       4.06370418       5.20008097       0.00000000 NULL
P        2.29154131       2.53579903       4.06370418       0.00000000 NULL
P        0.79799631       5.20008097       3.67217582       0.00000000 NULL
8
Lattice="2.983194276627008 0.0 0.0 0.0 7.735331243873015 0.0 0.0 0.0 7.735331243873015" Properties=species:S:1:pos:R:3:initial_magmoms:R:1:castep_labels:S:1 n_minim_iter=2 pbc="T T T"
P        0.68258185       2.23923588       7.70552084       0.00000000 NULL
P        2.17417899       5.49609537       0.02981040       0.00000000 NULL
P        2.91997756       7.70552084       5.49609537       0.00000000 NULL
P        1.42838042       0.02981040       2.23923588       0.00000000 NULL
P        0.05116610       3.67185889       2.53521186       0.00000000 NULL
P        1.54276324       4.06347236       5.20011938       0.00000000 NULL
P        2.28856181       2.53521186       4.06347236       0.00000000 NULL
P        0.79696467       5.20011938       3.67185889       0.00000000 NULL
8
Lattice="2.6163722239251577 0.0 0.0 0.0 7.683985870630941 0.0 0.0 0.0 7.683985870630941" Properties=species:S:1:pos:R:3:initial_magmoms:R:1:castep_labels:S:1 n_minim_iter=3 pbc="T T T"
P        0.59785079       2.22149584       7.65836829       0.00000000 NULL
P        1.90603690       5.46249003       0.02561758       0.00000000 NULL
P        2.56012995       7.65836829       5.46249003       0.00000000 NULL
P        1.25194384       0.02561758       2.22149584       0.00000000 NULL
P        0.04567343       3.64186891       2.47779177       0.00000000 NULL
P        1.35385955       4.04211696       5.20619410       0.00000000 NULL
P        2.00795260       2.47779177       4.04211696       0.00000000 NULL
P        0.69976649       5.20619410       3.64186891       0.00000000 NULL
8
Lattice="2.519357801686306 0.0 0.0 0.0 7.927455522414904 0.0 0.0 0.0 7.927455522414904" Properties=species:S:1:pos:R:3:initial_magmoms:R:1:castep_labels:S:1 n_minim_iter=4 pbc="T T T"
P        0.57532513       2.28833980       7.90451686       0.00000000 NULL
P        1.83500403       5.63911572       0.02293867       0.00000000 NULL
P        2.46484349       7.90451686       5.63911572       0.00000000 NULL
P        1.20516458       0.02293867       2.28833980       0.00000000 NULL
P        0.04433737       3.75156094       2.50871745       0.00000000 NULL
P        1.30401627       4.17589458       5.41873808       0.00000000 NULL
P        1.93385572       2.50871745       4.17589458       0.00000000 NULL
P        0.67417682       5.41873808       3.75156094       0.00000000 NULL
8
Lattice="2.3755205981148784 0.0 0.0 0.0 7.986519978519033 0.0 0.0 0.0 7.986519978519033" Properties=species:S:1:pos:R:3:initial_magmoms:R:1:castep_labels:S:1 n_minim_iter=5 pbc="T T T"
P        0.54167861       2.30379615       7.96894764       0.00000000 NULL
P        1.72943890       5.68272383       0.01757233       0.00000000 NULL
P        2.32331905       7.96894764       5.68272383       0.00000000 NULL
P        1.13555876       0.01757233       2.30379615       0.00000000 NULL
P        0.04260563       3.77413914       2.47913704       0.00000000 NULL
P        1.23036593       4.21238084       5.50738294       0.00000000 NULL
P        1.82424608       2.47913704       4.21238084       0.00000000 NULL
P        0.63648578       5.50738294       3.77413914       0.00000000 NULL
8
Lattice="2.4577299612139587 0.0 0.0 0.0 7.981677877931842 0.0 0.0 0.0 7.981677877931842" Properties=species:S:1:pos:R:3:initial_magmoms:R:1:castep_labels:S:1 n_minim_iter=6 pbc="T T T"
P        0.55963180       2.30254024       7.96852460       0.00000000 NULL
P        1.78849678       5.67913763       0.01315327       0.00000000 NULL
P        2.40292927       7.96852460       5.67913763       0.00000000 NULL
P        1.17406429       0.01315327       2.30254024       0.00000000 NULL
P        0.04487269       3.76902483       2.45182459       0.00000000 NULL
P        1.27373767       4.21265304       5.52985329       0.00000000 NULL
P        1.88817016       2.45182459       4.21265304       0.00000000 NULL
P        0.65930518       5.52985329       3.76902483       0.00000000 NULL
8
Lattice="2.4276902465088708 0.0 0.0 0.0 7.8633090748315615 0.0 0.0 0.0 7.8633090748315615" Properties=species:S:1:pos:R:3:initial_magmoms:R:1:castep_labels:S:1 n_minim_iter=7 pbc="T T T"
P        0.55248410       2.26865556       7.85204444       0.00000000 NULL
P        1.76632922       5.59465351       0.01126464       0.00000000 NULL
P        2.37325179       7.85204444       5.59465351       0.00000000 NULL
P        1.15940666       0.01126464       2.26865556       0.00000000 NULL
P        0.04463181       3.71252790       2.40930395       0.00000000 NULL
P        1.25847693       4.15078117       5.45400513       0.00000000 NULL
P        1.86539949       2.40930395       4.15078117       0.00000000 NULL
P        0.65155437       5.45400513       3.71252790       0.00000000 NULL
8
Lattice="2.429128242956897 0.0 0.0 0.0 7.770035326337257 0.0 0.0 0.0 7.770035326337257" Properties=species:S:1:pos:R:3:initial_magmoms:R:1:castep_labels:S:1 n_minim_iter=8 pbc="T T T"
P        0.55246563       2.24142254       7.76075485       0.00000000 NULL
P        1.76702975       5.52861278       0.00928048       0.00000000 NULL
P        2.37431181       7.76075485       5.52861278       0.00000000 NULL
P        1.15974769       0.00928048       2.24142254       0.00000000 NULL
P        0.04500397       3.66781596       2.37219973       0.00000000 NULL
P        1.25956809       4.10221937       5.39783560       0.00000000 NULL
P        1.86685015       2.37219973       4.10221937       0.00000000 NULL
P        0.65228603       5.39783560       3.66781596       0.00000000 NULL
8
Lattice="2.4552737132800018 0.0 0.0 0.0 7.529977133582947 0.0 0.0 0.0 7.529977133582947" Properties=species:S:1:pos:R:3:initial_magmoms:R:1:castep_labels:S:1 n_minim_iter=9 pbc="T T T"
P        0.55758014       2.17072415       7.52525726       0.00000000 NULL
P        1.78521699       5.35925299       0.00471988       0.00000000 NULL
P        2.39903542       7.52525726       5.35925299       0.00000000 NULL
P        1.17139856       0.00471988       2.17072415       0.00000000 NULL
P        0.04632022       3.55313513       2.27734384       0.00000000 NULL
P        1.27395707       3.97684201       5.25263329       0.00000000 NULL
P        1.88777550       2.27734384       3.97684201       0.00000000 NULL
P        0.66013864       5.25263329       3.55313513       0.00000000 NULL
8
Lattice="2.5040665881677704 0.0 0.0 0.0 7.265694646982606 0.0 0.0 0.0 7.265694646982606" Properties=species:S:1:pos:R:3:initial_magmoms:R:1:castep_labels:S:1 n_minim_iter=10 pbc="T T T"
P        0.56778633       2.09112390       7.26510850       0.00000000 NULL
P        1.81981963       5.17457075       0.00058615       0.00000000 NULL
P        2.44583628       7.26510850       5.17457075       0.00000000 NULL
P        1.19380298       0.00058615       2.09112390       0.00000000 NULL
P        0.04811514       3.42773800       2.17199757       0.00000000 NULL
P        1.30014843       3.83795665       5.09369708       0.00000000 NULL
P        1.92616508       2.17199757       3.83795665       0.00000000 NULL
P        0.67413179       5.09369708       3.42773800       0.00000000 NULL
8
Lattice="2.5561650877129347 0.0 0.0 0.0 6.980742200789804 0.0 0.0 0.0 6.980742200789804" Properties=species:S:1:pos:R:3:initial_magmoms:R:1:castep_labels:S:1 n_minim_iter=11 pbc="T T T"
P        0.57816054       1.99826800       6.98489026       0.00000000 NULL
P        1.85624308       4.98247420      -0.00414806       0.00000000 NULL
P        2.49528435       6.98489026       4.98247420       0.00000000 NULL
P        1.21720181      -0.00414806       1.99826800       0.00000000 NULL
P        0.05055511       3.29374279       2.03836687       0.00000000 NULL
P        1.32863765       3.68699941       4.94237533       0.00000000 NULL
P        1.96767893       2.03836687       3.68699941       0.00000000 NULL
P        0.68959638       4.94237533       3.29374279       0.00000000 NULL
8
Lattice="2.4943623055845716 0.0 0.0 0.0 7.093292897852892 0.0 0.0 0.0 7.093292897852892" Properties=species:S:1:pos:R:3:initial_magmoms:R:1:castep_labels:S:1 n_minim_iter=12 pbc="T T T"
P        0.56359831       2.01988868       7.09797153       0.00000000 NULL
P        1.81077947       5.07340422      -0.00467864       0.00000000 NULL
P        2.43437004       7.09797153       5.07340422       0.00000000 NULL
P        1.18718889      -0.00467864       2.01988868       0.00000000 NULL
P        0.04991629       3.34888601       2.04287351       0.00000000 NULL
P        1.29709744       3.74440689       5.05041939       0.00000000 NULL
P        1.92068802       2.04287351       3.74440689       0.00000000 NULL
P        0.67350686       5.05041939       3.34888601       0.00000000 NULL
8
Lattice="2.513791645053371 0.0 0.0 0.0 7.004939189657026 0.0 0.0 0.0 7.004939189657026" Properties=species:S:1:pos:R:3:initial_magmoms:R:1:castep_labels:S:1 n_minim_iter=13 pbc="T T T"
P        0.56720134       1.98715557       7.01044691       0.00000000 NULL
P        1.82409717       5.01778362      -0.00550772       0.00000000 NULL
P        2.45254508       7.01044691       5.01778362       0.00000000 NULL
P        1.19564926      -0.00550772       1.98715557       0.00000000 NULL
P        0.05109211       3.30915151       2.00033280       0.00000000 NULL
P        1.30798793       3.69578768       5.00460639       0.00000000 NULL
P        1.93643584       2.00033280       3.69578768       0.00000000 NULL
P        0.67954002       5.00460639       3.30915151       0.00000000 NULL
8
Lattice="2.5043732927470197 0.0 0.0 0.0 7.013767481066689 0.0 0.0 0.0 7.013767481066689" Properties=species:S:1:pos:R:3:initial_magmoms:R:1:castep_labels:S:1 n_minim_iter=14 pbc="T T T"
P        0.56441916       1.98108459       7.01946504       0.00000000 NULL
P        1.81660581       5.03268289      -0.00569756       0.00000000 NULL
P        2.44269913       7.01946504       5.03268289       0.00000000 NULL
P        1.19051248      -0.00569756       1.98108459       0.00000000 NULL
P        0.05155775       3.31576254       1.98665127       0.00000000 NULL
P        1.30374440       3.69800494       5.02711621       0.00000000 NULL
P        1.92983772       1.98665127       3.69800494       0.00000000 NULL
P        0.67765107       5.02711621       3.31576254       0.00000000 NULL
8
Lattice="2.501324402871589 0.0 0.0 0.0 6.964709313609094 0.0 0.0 0.0 6.964709313609094" Properties=species:S:1:pos:R:3:initial_magmoms:R:1:castep_labels:S:1 n_minim_iter=15 pbc="T T T"
P        0.56165629       1.94166216       6.97083973       0.00000000 NULL
P        1.81231850       5.02304716      -0.00613042       0.00000000 NULL
P        2.43764960       6.97083973       5.02304716       0.00000000 NULL
P        1.18698739      -0.00613042       1.94166216       0.00000000 NULL
P        0.05357071       3.30052265       1.92974674       0.00000000 NULL
P        1.30423291       3.66418666       5.03496257       0.00000000 NULL
P        1.92956401       1.92974674       3.66418666       0.00000000 NULL
P        0.67890181       5.03496257       3.30052265       0.00000000 NULL
8
Lattice="2.4800374871412765 0.0 0.0 0.0 7.143813563340317 0.0 0.0 0.0 7.143813563340317" Properties=species:S:1:pos:R:3:initial_magmoms:R:1:castep_labels:S:1 n_minim_iter=16 pbc="T T T"
P        0.55417576       1.95283620       7.14831556       0.00000000 NULL
P        1.79419451       5.19097737      -0.00450199       0.00000000 NULL
P        2.41420388       7.14831556       5.19097737       0.00000000 NULL
P        1.17418514      -0.00450199       1.95283620       0.00000000 NULL
P        0.05581550       3.39980279       1.93185574       0.00000000 NULL
P        1.29583424       3.74401077       5.21195783       0.00000000 NULL
P        1.91584361       1.93185574       3.74401077       0.00000000 NULL
P        0.67582487       5.21195783       3.39980279       0.00000000 NULL
8
Lattice="2.480532328187772 0.0 0.0 0.0 6.921784751741531 0.0 0.0 0.0 6.921784751741531" Properties=species:S:1:pos:R:3:initial_magmoms:R:1:castep_labels:S:1 n_minim_iter=17 pbc="T T T"
P        0.55365933       1.88691808       6.92688185       0.00000000 NULL
P        1.79392550       5.03486667      -0.00509710       0.00000000 NULL
P        2.41405858       6.92688185       5.03486667       0.00000000 NULL
P        1.17379242      -0.00509710       1.88691808       0.00000000 NULL
P        0.05645364       3.29657857       1.86582688       0.00000000 NULL
P        1.29671980       3.62520618       5.05595788       0.00000000 NULL
P        1.91685289       1.86582688       3.62520618       0.00000000 NULL
P        0.67658672       5.05595788       3.29657857       0.00000000 NULL
8
Lattice="2.4914128942165172 0.0 0.0 0.0 6.98730501597704 0.0 0.0 0.0 6.98730501597704" Properties=species:S:1:pos:R:3:initial_magmoms:R:1:castep_labels:S:1 n_minim_iter=18 pbc="T T T"
P        0.55575832       1.90078567       6.99204489       0.00000000 NULL
P        1.80146477       5.08651935      -0.00473987       0.00000000 NULL
P        2.42431799       6.99204489       5.08651935       0.00000000 NULL
P        1.17861155      -0.00473987       1.90078567       0.00000000 NULL
P        0.05703084       3.32957226       1.87983315       0.00000000 NULL
P        1.30273729       3.65773276       5.10747186       0.00000000 NULL
P        1.92559051       1.87983315       3.65773276       0.00000000 NULL
P        0.67988406       5.10747186       3.32957226       0.00000000 NULL
