6
Lattice="4.256 0.0 0.0 0.0 5.317789999999999 3.5291024101046357e-16 0.0 -0.975115797106029 5.5458562771797695" Properties=species:S:1:pos:R:3:initial_magmoms:R:1:castep_labels:S:1 n_minim_iter=1 pbc="T T T"
P        0.40499543       1.84194340       2.16414175       0.00000000 NULL
P        3.85100457       1.35438550       4.93706989       0.00000000 NULL
P        0.13459430       4.12576156       5.22502461       0.00000000 NULL
P        4.12140570       4.61331946       2.45209647       0.00000000 NULL
P        1.96607622       1.78910371       0.81920782       0.00000000 NULL
P        2.28992378       1.30154581       3.59213596       0.00000000 NULL
6
Lattice="4.256274686861643 0.0 0.0 0.0 5.312469391212858 0.0008607239318612221 0.0 -0.9732425262737873 5.544498099668417" Properties=species:S:1:pos:R:3:initial_magmoms:R:1:castep_labels:S:1 n_minim_iter=2 pbc="T T T"
P        0.40491896       1.84043152       2.16412785       0.00000000 NULL
P        3.85135572       1.35381025       4.93637690       0.00000000 NULL
P        0.13459296       4.12254058       5.22454390       0.00000000 NULL
P        4.12168173       4.60916184       2.45229485       0.00000000 NULL
P        1.96630160       1.78740424       0.81918131       0.00000000 NULL
P        2.28997308       1.30078298       3.59143035       0.00000000 NULL
6
Lattice="4.283403315169438 0.0 0.0 0.0 4.840192896173814 0.07722636176650945 0.0 -0.8070010758102378 5.420667794135778" Properties=species:S:1:pos:R:3:initial_magmoms:R:1:castep_labels:S:1 n_minim_iter=3 pbc="T T T"
P        0.39779176       1.70650946       2.16209706       0.00000000 NULL
P        3.88561156       1.30300892       4.87243095       0.00000000 NULL
P        0.13451443       3.83635418       5.17878509       0.00000000 NULL
P        4.14888889       4.23985472       2.46845120       0.00000000 NULL
P        1.98813965       1.63650092       0.81580748       0.00000000 NULL
P        2.29526367       1.23300038       3.52614138       0.00000000 NULL
6
Lattice="4.427072298967111 0.0 0.0 0.0 4.763910512969314 0.14977699298779906 0.0 -0.7173511403153137 5.39393305027518" Properties=species:S:1:pos:R:3:initial_magmoms:R:1:castep_labels:S:1 n_minim_iter=4 pbc="T T T"
P        0.40138601       1.71085059       2.19612059       0.00000000 NULL
P        4.02568629       1.35217502       4.89308712       0.00000000 NULL
P        0.14053510       3.85084076       5.22180052       0.00000000 NULL
P        4.28653720       4.20951633       2.52483399       0.00000000 NULL
P        2.06254577       1.61839060       0.82471523       0.00000000 NULL
P        2.36452653       1.25971503       3.52168176       0.00000000 NULL
6
Lattice="4.4519804089146815 0.0 0.0 0.0 4.738329582478185 0.19011467828728962 0.0 -0.6705927360436806 5.264870299637071" Properties=species:S:1:pos:R:3:initial_magmoms:R:1:castep_labels:S:1 n_minim_iter=5 pbc="T T T"
P        0.40221604       1.71887620       2.16756133       0.00000000 NULL
P        4.04976437       1.38357983       4.79999648       0.00000000 NULL
P        0.14245474       3.87174229       5.13827168       0.00000000 NULL
P        4.30952567       4.20703866       2.50583653       0.00000000 NULL
P        2.07560541       1.61441375       0.81556508       0.00000000 NULL
P        2.37637500       1.27911738       3.44800023       0.00000000 NULL
6
Lattice="4.487645952493889 0.0 0.0 0.0 4.735674501550324 0.20963442079470038 0.0 -0.649748983682452 5.215221362976506" Properties=species:S:1:pos:R:3:initial_magmoms:R:1:castep_labels:S:1 n_minim_iter=6 pbc="T T T"
P        0.40450123       1.72649732       2.15893698       0.00000000 NULL
P        4.08314472       1.40162283       4.76654766       0.00000000 NULL
P        0.14413055       3.88902770       5.10980253       0.00000000 NULL
P        4.34351540       4.21390219       2.50219184       0.00000000 NULL
P        2.09339292       1.61576444       0.81294385       0.00000000 NULL
P        2.39425304       1.29088995       3.42055453       0.00000000 NULL
6
Lattice="4.616937823253004 0.0 0.0 0.0 4.730501234288138 0.27326621020983577 0.0 -0.5824395763184692 5.045732160449799" Properties=species:S:1:pos:R:3:initial_magmoms:R:1:castep_labels:S:1 n_minim_iter=7 pbc="T T T"
P        0.41349435       1.75284616       2.12732012       0.00000000 NULL
P        4.20344347       1.46162638       4.65018620       0.00000000 NULL
P        0.14992928       3.94767931       5.00961438       0.00000000 NULL
P        4.46700854       4.23889910       2.48674830       0.00000000 NULL
P        2.15783519       1.62143803       0.80397584       0.00000000 NULL
P        2.45910264       1.33021824       3.32684192       0.00000000 NULL
6
Lattice="4.770923909782352 0.0 0.0 0.0 4.7238892598495195 0.32964930662589353 0.0 -0.5224259259278025 4.887887944114325" Properties=species:S:1:pos:R:3:initial_magmoms:R:1:castep_labels:S:1 n_minim_iter=8 pbc="T T T"
P        0.42615229       1.77611523       2.09586059       0.00000000 NULL
P        4.34477162       1.51490227       4.53980457       0.00000000 NULL
P        0.15601802       3.99676025       4.91281996       0.00000000 NULL
P        4.61490589       4.25797321       2.46887599       0.00000000 NULL
P        2.23497861       1.62647462       0.79615178       0.00000000 NULL
P        2.53594530       1.36526166       3.24009575       0.00000000 NULL
6
Lattice="5.237144545080909 0.0 0.0 0.0 4.667383940017025 0.4476677964547605 0.0 -0.3889846255699677 4.522791532984401" Properties=species:S:1:pos:R:3:initial_magmoms:R:1:castep_labels:S:1 n_minim_iter=9 pbc="T T T"
P        0.47001474       1.81162798       2.01639676       0.00000000 NULL
P        4.76712980       1.61713566       4.27779253       0.00000000 NULL
P        0.17107791       4.06246969       4.67483761       0.00000000 NULL
P        5.06606664       4.25696200       2.41344185       0.00000000 NULL
P        2.47050289       1.62500045       0.77740038       0.00000000 NULL
P        2.76664166       1.43050814       3.03879614       0.00000000 NULL
6
Lattice="5.297966938966497 0.0 0.0 0.0 4.5515781067905765 0.4159679635927306 0.0 -0.40080882691814035 4.73857293642053" Properties=species:S:1:pos:R:3:initial_magmoms:R:1:castep_labels:S:1 n_minim_iter=10 pbc="T T T"
P        0.48760270       1.76083470       2.09583427       0.00000000 NULL
P        4.81036424       1.56043028       4.46512074       0.00000000 NULL
P        0.16869147       3.93409461       4.84179330       0.00000000 NULL
P        5.12927547       4.13449903       2.47250683       0.00000000 NULL
P        2.50507529       1.58631745       0.79554093       0.00000000 NULL
P        2.79289165       1.38591303       3.16482740       0.00000000 NULL
6
Lattice="5.248559890000211 0.0 0.0 0.0 4.574218110896832 0.4167757936201691 0.0 -0.4041178173863594 4.585520349972381" Properties=species:S:1:pos:R:3:initial_magmoms:R:1:castep_labels:S:1 n_minim_iter=11 pbc="T T T"
P        0.48998652       1.76988650       2.03560425       0.00000000 NULL
P        4.75857337       1.56782759       4.32836442       0.00000000 NULL
P        0.16538618       3.95039088       4.69722736       0.00000000 NULL
P        5.08317371       4.15244979       2.40446718       0.00000000 NULL
P        2.48401032       1.59524022       0.77520267       0.00000000 NULL
P        2.76454957       1.39318131       3.06796285       0.00000000 NULL
