4
Lattice="2.6622799999999995 -1.6578459509344877e-16 -1.8112498964635406e-16 0.6727896990609183 4.933627765137689 5.92247746776259e-16 0.9010739105845337 1.0869686581345865 6.970986152962645" Properties=species:S:1:pos:R:3:initial_magmoms:R:1:castep_labels:S:1 n_minim_iter=1 pbc="T T T"
P        3.17101642       5.08845905       6.10403319       0.00000000 NULL
P        2.57827769       4.00324938       4.14786433       0.00000000 NULL
P        0.71040984       2.62887615       2.84698211       0.00000000 NULL
P        2.64725770       3.95109171       1.15443504       0.00000000 NULL
4
Lattice="2.6616391237842136 -8.78809525609305e-05 -0.0005820606064027337 0.6724648846822873 4.934643598802719 0.0008082983524805569 0.8992970362112659 1.0885175380571628 6.9751783984376745" Properties=species:S:1:pos:R:3:initial_magmoms:R:1:castep_labels:S:1 n_minim_iter=2 pbc="T T T"
P        3.16875105       5.09066739       6.10781773       0.00000000 NULL
P        2.57657994       4.00491731       4.15063895       0.00000000 NULL
P        0.70953794       2.62971817       2.84895442       0.00000000 NULL
P        2.64626690       3.95213028       1.15549144       0.00000000 NULL
4
Lattice="2.6152266588124453 -0.0064764152230579524 -0.043488691950549496 0.6488969360080368 5.008759317105858 0.06098531289645194 0.7686320682868775 1.2033880158745653 7.285540960193212" Properties=species:S:1:pos:R:3:initial_magmoms:R:1:castep_labels:S:1 n_minim_iter=3 pbc="T T T"
P        3.00312086       5.25329269       6.38825391       0.00000000 NULL
P        2.45243620       4.12781196       4.35660082       0.00000000 NULL
P        0.64561418       2.69172261       2.99478139       0.00000000 NULL
P        2.57387970       4.02848721       1.23437610       0.00000000 NULL
4
Lattice="2.5250234895952532 0.007644479358202765 -0.08944726859492985 0.652269787286908 5.036292872864499 0.08791601855068551 0.623528114534133 1.2679095682058406 7.416250734096408" Properties=species:S:1:pos:R:3:initial_magmoms:R:1:castep_labels:S:1 n_minim_iter=4 pbc="T T T"
P        2.81861097       5.34566689       6.48623917       0.00000000 NULL
P        2.31756350       4.19646180       4.42652841       0.00000000 NULL
P        0.58087963       2.71725168       3.05716329       0.00000000 NULL
P        2.48650593       4.07771992       1.25100604       0.00000000 NULL
4
Lattice="2.4457215187945134 0.04933540174648379 -0.16828532340977562 0.7094891418172583 5.065330491972457 0.10804100427871254 0.4072776827904804 1.3426829249971624 7.557409555312219" Properties=species:S:1:pos:R:3:initial_magmoms:R:1:castep_labels:S:1 n_minim_iter=5 pbc="T T T"
P        2.62502966       5.46758847       6.56034211       0.00000000 NULL
P        2.18994719       4.29148969       4.48083237       0.00000000 NULL
P        0.50161946       2.73789247       3.12177885       0.00000000 NULL
P        2.43902551       4.15721450       1.24065284       0.00000000 NULL
4
Lattice="2.455141952689861 0.10416758777678095 -0.21625664819129833 0.8134825483363856 5.0452609024934665 0.11213420287735479 0.30724385242333346 1.3766794282007895 7.5192364920554775" Properties=species:S:1:pos:R:3:initial_magmoms:R:1:castep_labels:S:1 n_minim_iter=6 pbc="T T T"
P        2.63060071       5.51921710       6.48763039       0.00000000 NULL
P        2.21909556       4.33704013       4.43790514       0.00000000 NULL
P        0.48908666       2.72357909       3.10865994       0.00000000 NULL
P        2.51500790       4.20099688       1.20466575       0.00000000 NULL
4
Lattice="2.419415201062673 0.14367814230632828 -0.22145195683201918 0.8776733090254505 5.035482057067641 0.12784380755397412 0.2976798193551025 1.4097498884448332 7.515670692118278" Properties=species:S:1:pos:R:3:initial_magmoms:R:1:castep_labels:S:1 n_minim_iter=7 pbc="T T T"
P        2.65009433       5.56806632       6.48613457       0.00000000 NULL
P        2.24565568       4.37825208       4.44593896       0.00000000 NULL
P        0.50064201       2.71575827       3.11572912       0.00000000 NULL
P        2.53995366       4.24031084       1.21599506       0.00000000 NULL
4
Lattice="2.419914674914546 0.18146884880136033 -0.2212111343358393 0.9478317144863879 5.034143159458981 0.14724427114333336 0.3139088210649136 1.4474674131054854 7.5051847484298815" Properties=species:S:1:pos:R:3:initial_magmoms:R:1:castep_labels:S:1 n_minim_iter=8 pbc="T T T"
P        2.72158959       5.62611626       6.48724395       0.00000000 NULL
P        2.31348863       4.42786285       4.45641977       0.00000000 NULL
P        0.52660519       2.71473624       3.12035522       0.00000000 NULL
P        2.60011748       4.28422753       1.23171592       0.00000000 NULL
4
Lattice="2.4029389728592556 0.23631086028024345 -0.20798181683142414 1.0451727128228125 5.0479984202743955 0.18094986652613398 0.36519440129207015 1.5089289808050625 7.48703435123505" Properties=species:S:1:pos:R:3:initial_magmoms:R:1:castep_labels:S:1 n_minim_iter=9 pbc="T T T"
P        2.83295291       5.72931706       6.50061820       0.00000000 NULL
P        2.41801837       4.51566173       4.48030224       0.00000000 NULL
P        0.57155628       2.71941533       3.12844767       0.00000000 NULL
P        2.67486193       4.36385364       1.26812282       0.00000000 NULL
4
Lattice="2.4179209846365626 0.3383323518446683 -0.1801666946293094 1.2380208755322153 5.090957353542351 0.23701612004957706 0.4847509075352805 1.6165305629564874 7.39028731551603" Properties=species:S:1:pos:R:3:initial_magmoms:R:1:castep_labels:S:1 n_minim_iter=10 pbc="T T T"
P        3.10006360       5.92878983       6.47080156       0.00000000 NULL
P        2.67567929       4.68947916       4.48132591       0.00000000 NULL
P        0.66327617       2.72503976       3.11519918       0.00000000 NULL
P        2.85909239       4.53015881       1.32192462       0.00000000 NULL
4
Lattice="2.3346106976996186 0.3110956910931209 -0.19362425590318086 1.166493519810628 5.013968335173531 0.2421492160851875 0.4101957908968444 1.6039245393144044 7.330839760216076" Properties=species:S:1:pos:R:3:initial_magmoms:R:1:castep_labels:S:1 n_minim_iter=11 pbc="T T T"
P        2.91329432       5.83649388       6.41339524       0.00000000 NULL
P        2.55154662       4.60964932       4.43139279       0.00000000 NULL
P        0.59581921       2.66853500       3.09686944       0.00000000 NULL
P        2.72008928       4.46758288       1.31258577       0.00000000 NULL
4
Lattice="2.3997754124917567 0.32591491976512044 -0.1989924488239199 1.2104238002050651 4.997736601502029 0.24062245716231892 0.42424565153403104 1.6042985900226585 7.336325339369052" Properties=species:S:1:pos:R:3:initial_magmoms:R:1:castep_labels:S:1 n_minim_iter=12 pbc="T T T"
P        3.00492766       5.83313376       6.41218116       0.00000000 NULL
P        2.63782924       4.60846455       4.43009461       0.00000000 NULL
P        0.61615969       2.65660956       3.09852314       0.00000000 NULL
P        2.80323831       4.47079821       1.30954845       0.00000000 NULL
