24
Lattice="8.809219999999925 5.788949068620116e-07 9.242869076211943e-07 -5.788949068620075e-07 8.809219999999984 -7.539615699286086e-14 -4.404610448429108 -4.4046113167714855 7.032575500052177" Properties=species:S:1:pos:R:3:initial_magmoms:R:1:castep_labels:S:1 n_minim_iter=1 pbc="T T T"
P        3.51144256      -1.38546451       2.64580946       0.00000000 NULL
P       -0.89316809       5.79007278       4.38676538       0.00000000 NULL
P        5.71083655       6.06834269       2.20302886       0.00000000 NULL
P        1.30622678      -1.66373413       4.82954644       0.00000000 NULL
P       -1.52891981       4.12330650       5.37211640       0.00000000 NULL
P        2.87569083       0.28130168       1.66045831       0.00000000 NULL
P        5.14372531       3.40260907       0.45089837       0.00000000 NULL
P        0.73911483       1.00199941       6.58167681       0.00000000 NULL
P        0.31139688       6.40807692       2.42297351       0.00000000 NULL
P        4.71600720      -2.00346849       4.60960158       0.00000000 NULL
P        2.52774058       5.90766339       3.82275244       0.00000000 NULL
P       -1.87686887      -1.50305525       3.20982220       0.00000000 NULL
P        6.21671693       4.91757338       3.77728722       0.00000000 NULL
P        1.81210734      -0.51296476       3.25528818       0.00000000 NULL
P       -0.39310843      -2.04451166       6.20298513       0.00000000 NULL
P        4.01150158       6.44911999       0.82958981       0.00000000 NULL
P       -0.08023381       2.41466071       1.46819228       0.00000000 NULL
P        4.32437579       1.98994766       5.56438273       0.00000000 NULL
P        6.54547382       0.90837590       3.18902353       0.00000000 NULL
P        2.14086358       3.49623277       3.84355195       0.00000000 NULL
P        2.84151425       1.40727116       4.15640108       0.00000000 NULL
P       -1.56309572       2.99733702       2.87617362       0.00000000 NULL
P        0.62041728       2.59204053       4.79745953       0.00000000 NULL
P        5.02502760       1.81256794       2.23511563       0.00000000 NULL
24
Lattice="8.832069000630755 5.803964212096047e-07 9.26684285820816e-07 -5.806879867903091e-07 8.845358272124122 -0.005544410440361225 -4.416034950628909 -4.427106671196389 7.064624441509555" Properties=species:S:1:pos:R:3:initial_magmoms:R:1:castep_labels:S:1 n_minim_iter=2 pbc="T T T"
P        3.52085953      -1.39290971       2.65780489       0.00000000 NULL
P       -0.89517563       5.81116089       4.40127448       0.00000000 NULL
P        5.72555683       6.09182484       2.20799837       0.00000000 NULL
P        1.30952256      -1.67357336       4.85108146       0.00000000 NULL
P       -1.53284339       4.13651361       5.39219310       0.00000000 NULL
P        2.88319176       0.28173749       1.66688613       0.00000000 NULL
P        5.15722916       3.41633493       0.45082177       0.00000000 NULL
P        0.74119417       1.00191647       6.60825794       0.00000000 NULL
P        0.31220979       6.43281360       2.42894101       0.00000000 NULL
P        4.72824462      -2.01456226       4.63013861       0.00000000 NULL
P        2.53443857       5.92908810       3.83493298       0.00000000 NULL
P       -1.88159537      -1.51083705       3.22414617       0.00000000 NULL
P        6.23241840       4.93497298       3.78993925       0.00000000 NULL
P        1.81638431      -0.51672144       3.26914069       0.00000000 NULL
P       -0.39428355      -2.05684747       6.23009523       0.00000000 NULL
P        4.02175096       6.47509872       0.82898424       0.00000000 NULL
P       -0.08046632       2.42366644       1.47278233       0.00000000 NULL
P        4.33556778       1.99458485       5.58629721       0.00000000 NULL
P        6.56260541       0.91003168       3.20184602       0.00000000 NULL
P        2.14657067       3.50821990       3.85723398       0.00000000 NULL
P        2.84894781       1.41046190       4.17283837       0.00000000 NULL
P       -1.56708666       3.00778920       2.88624086       0.00000000 NULL
P        0.62184395       2.59959580       4.81585699       0.00000000 NULL
P        5.03787877       1.81865558       2.24322270       0.00000000 NULL
24
Lattice="9.122917685349737 5.995094438055363e-07 9.572009072036275e-07 -6.042313928784816e-07 9.325428991799024 -0.08183181810231611 -4.561459318138692 -4.728043855113064 7.492809072405623" Properties=species:S:1:pos:R:3:initial_magmoms:R:1:castep_labels:S:1 n_minim_iter=3 pbc="T T T"
P        3.64103607      -1.49262574       2.81811142       0.00000000 NULL
P       -0.92042346       6.09001044       4.59286512       0.00000000 NULL
P        5.91287087       6.40313442       2.27230839       0.00000000 NULL
P        1.35141227      -1.80574942       5.13866863       0.00000000 NULL
P       -1.58272283       4.31011865       5.65871174       0.00000000 NULL
P        2.97873669       0.28726597       1.75226466       0.00000000 NULL
P        5.32929262       3.59859594       0.44898542       0.00000000 NULL
P        0.76783327       0.99878898       6.96199148       0.00000000 NULL
P        0.32255162       6.76071715       2.50670318       0.00000000 NULL
P        4.88401080      -2.16333229       4.90427363       0.00000000 NULL
P        2.61988831       6.21223404       3.99562579       0.00000000 NULL
P       -1.94156996      -1.61484948       3.41535054       0.00000000 NULL
P        6.43179212       5.16460690       3.95723913       0.00000000 NULL
P        1.87033370      -0.56722184       3.45373800       0.00000000 NULL
P       -0.40939692      -2.22259022       6.59182488       0.00000000 NULL
P        4.15206194       6.81997499       0.81915177       0.00000000 NULL
P       -0.08353283       2.54292463       1.53333295       0.00000000 NULL
P        4.47792559       2.05446018       5.87764377       0.00000000 NULL
P        6.78079532       0.93114888       3.37247170       0.00000000 NULL
P        2.21933622       3.66623623       4.03850550       0.00000000 NULL
P        2.94365871       1.45171954       4.39148675       0.00000000 NULL
P       -1.61780010       3.14566507       3.01948964       0.00000000 NULL
P        0.63988936       2.69850741       5.06025717       0.00000000 NULL
P        5.20134854       1.89887749       2.35071970       0.00000000 NULL
24
Lattice="9.051417090239589 5.948108063668899e-07 9.496988737277941e-07 -6.086879544149244e-07 9.45291199286264 -0.11920163181038532 -4.525709028614748 -4.821618435516401 7.627959585059089" Properties=species:S:1:pos:R:3:initial_magmoms:R:1:castep_labels:S:1 n_minim_iter=4 pbc="T T T"
P        3.61531200      -1.52414710       2.86943123       0.00000000 NULL
P       -0.91039723       6.15544021       4.63932599       0.00000000 NULL
P        5.86600608       6.48149808       2.28000418       0.00000000 NULL
P        1.34029777      -1.85020467       5.22875351       0.00000000 NULL
P       -1.56952599       4.34447324       5.73204912       0.00000000 NULL
P        2.95618324       0.28681978       1.77670796       0.00000000 NULL
P        5.28894043       3.64684166       0.44371590       0.00000000 NULL
P        0.76323137       0.98445167       7.06504167       0.00000000 NULL
P        0.31991710       6.84364089       2.52043822       0.00000000 NULL
P        4.84562598      -2.21234762       4.98831926       0.00000000 NULL
P        2.60122966       6.27810957       4.03375939       0.00000000 NULL
P       -1.92447830      -1.64681660       3.47499762       0.00000000 NULL
P        6.37675420       5.21524020       3.99970247       0.00000000 NULL
P        1.85104609      -0.58394673       3.50905533       0.00000000 NULL
P       -0.40726212      -2.27841401       6.70327342       0.00000000 NULL
P        4.11844644       6.90970719       0.80548390       0.00000000 NULL
P       -0.08427187       2.57238618       1.54848434       0.00000000 NULL
P        4.44143625       2.05890704       5.96027305       0.00000000 NULL
P        6.72826600       0.93249863       3.42162136       0.00000000 NULL
P        2.20255720       3.69879489       4.08713651       0.00000000 NULL
P        2.92139028       1.45628352       4.45510727       0.00000000 NULL
P       -1.60431823       3.17500950       3.05364981       0.00000000 NULL
P        0.63428724       2.71543011       5.12860076       0.00000000 NULL
P        5.15999613       1.91586321       2.38015679       0.00000000 NULL
24
Lattice="8.889154873314753 5.84147799703833e-07 9.326738882860765e-07 -6.112319159611305e-07 9.528433008597798 -0.14225552865824287 -4.444577927743094 -4.8777833323565964 7.73548279212112" Properties=species:S:1:pos:R:3:initial_magmoms:R:1:castep_labels:S:1 n_minim_iter=5 pbc="T T T"
P        3.55404391      -1.54314795       2.91126952       0.00000000 NULL
P       -0.89053422       6.19379717       4.68195698       0.00000000 NULL
P        5.76036554       6.52734963       2.29072857       0.00000000 NULL
P        1.31578834      -1.87670012       5.30249839       0.00000000 NULL
P       -1.54026201       4.36318389       5.79640649       0.00000000 NULL
P        2.90431611       0.28746524       1.79681988       0.00000000 NULL
P        5.19570133       3.67629558       0.44303698       0.00000000 NULL
P        0.75112337       0.97435385       7.15018986       0.00000000 NULL
P        0.31392793       6.89308611       2.53818348       0.00000000 NULL
P        4.75850570      -2.24243673       5.05504327       0.00000000 NULL
P        2.55710920       6.31498274       4.07019637       0.00000000 NULL
P       -1.88746765      -1.66433365       3.52302993       0.00000000 NULL
P        6.25647130       5.24194183       4.03933569       0.00000000 NULL
P        1.81189430      -0.59129226       3.55389138       0.00000000 NULL
P       -0.40112983      -2.31194411       6.79337215       0.00000000 NULL
P        4.04344763       6.96259339       0.79985446       0.00000000 NULL
P       -0.08465926       2.59023307       1.56382107       0.00000000 NULL
P        4.35991774       2.06041625       6.02940559       0.00000000 NULL
P        6.60825179       0.93475661       3.46271814       0.00000000 NULL
P        2.16367410       3.71589301       4.13050900       0.00000000 NULL
P        2.86992124       1.46035983       4.50922133       0.00000000 NULL
P       -1.57465616       3.19028930       3.08400502       0.00000000 NULL
P        0.62242922       2.72479636       5.18695321       0.00000000 NULL
P        5.06700701       1.92585306       2.40627361       0.00000000 NULL
24
Lattice="8.460865577182217 5.5600291371929e-07 8.877366306312082e-07 -6.192333810717802e-07 9.64758492827309 -0.1406215913749565 -4.230433301676604 -4.936054887306876 7.981655300790707" Properties=species:S:1:pos:R:3:initial_magmoms:R:1:castep_labels:S:1 n_minim_iter=6 pbc="T T T"
P        3.39303223      -1.56231002       3.00957658       0.00000000 NULL
P       -0.83740126       6.27383957       4.83145628       0.00000000 NULL
P        5.48179158       6.60764699       2.35958804       0.00000000 NULL
P        1.25135902      -1.89611717       5.48144526       0.00000000 NULL
P       -1.46288055       4.41402957       5.99038563       0.00000000 NULL
P        2.76755295       0.29749990       1.85064710       0.00000000 NULL
P        4.94912661       3.72749429       0.46526620       0.00000000 NULL
P        0.71869327       0.98403547       7.37576699       0.00000000 NULL
P        0.29783501       6.98285872       2.62856312       0.00000000 NULL
P        4.52826814      -2.27132902       5.21246998       0.00000000 NULL
P        2.44085359       6.38571552       4.20421270       0.00000000 NULL
P       -1.78957861      -1.67418610       3.63681997       0.00000000 NULL
P        5.93826132       5.29358063       4.17500120       0.00000000 NULL
P        1.70782898      -0.58205075       3.66603220       0.00000000 NULL
P       -0.38482251      -2.33778630       7.01115925       0.00000000 NULL
P        3.84561031       7.04931591       0.82987370       0.00000000 NULL
P       -0.08527979       2.62587368       1.62037261       0.00000000 NULL
P        4.14515255       2.08565597       6.22066041       0.00000000 NULL
P        6.29191486       0.95553027       3.57502601       0.00000000 NULL
P        2.06148181       3.75599966       4.26600746       0.00000000 NULL
P        2.73369192       1.48909178       4.65861914       0.00000000 NULL
P       -1.49674083       3.22243768       3.18241358       0.00000000 NULL
P        0.59071819       2.75948446       5.35497524       0.00000000 NULL
P        4.82115133       1.95204528       2.48605792       0.00000000 NULL
24
Lattice="8.236545233868208 5.412617783886459e-07 8.642003406452618e-07 -6.336463155571638e-07 9.633398962097878 0.005630501234932135 -4.1182731626392375 -4.8122059337234 8.214979007289788" Properties=species:S:1:pos:R:3:initial_magmoms:R:1:castep_labels:S:1 n_minim_iter=7 pbc="T T T"
P        3.31821016      -1.51961848       3.10692064       0.00000000 NULL
P       -0.80006318       6.34081098       5.11368793       0.00000000 NULL
P        5.33603105       6.62963786       2.54431334       0.00000000 NULL
P        1.21775866      -1.80844509       5.67629566       0.00000000 NULL
P       -1.42015681       4.49306494       6.29747717       0.00000000 NULL
P        2.69811654       0.32812748       1.92313127       0.00000000 NULL
P        4.82063348       3.73795811       0.54725186       0.00000000 NULL
P        0.70236029       1.08323460       7.67335703       0.00000000 NULL
P        0.28816096       7.01647308       2.84487300       0.00000000 NULL
P        4.40643392      -2.19528043       5.37573580       0.00000000 NULL
P        2.38442572       6.42965514       4.46611326       0.00000000 NULL
P       -1.73384629      -1.60846276       3.75449512       0.00000000 NULL
P        5.75849248       5.32914802       4.42147855       0.00000000 NULL
P        1.64022032      -0.50795519       3.79913053       0.00000000 NULL
P       -0.37770584      -2.23054352       7.24903639       0.00000000 NULL
P        3.74056683       7.05173608       0.97157226       0.00000000 NULL
P       -0.08693899       2.64937069       1.72960621       0.00000000 NULL
P        4.03133316       2.17182191       6.49100251       0.00000000 NULL
P        6.12969621       1.01436381       3.73214992       0.00000000 NULL
P        2.01142333       3.80682907       4.48845924       0.00000000 NULL
P        2.66291617       1.56837224       4.86765000       0.00000000 NULL
P       -1.45535640       3.25282018       3.35295843       0.00000000 NULL
P        0.57021178       2.83153794       5.60747996       0.00000000 NULL
P        4.68848477       1.98965474       2.61312890       0.00000000 NULL
24
Lattice="8.043755592852106 5.285926725292029e-07 8.439723361722421e-07 -6.208139139840457e-07 9.447629306613246 -0.00032256429948599764 -4.021878344873281 -4.724073528889187 8.185914784187888" Properties=species:S:1:pos:R:3:initial_magmoms:R:1:castep_labels:S:1 n_minim_iter=8 pbc="T T T"
P        3.24964749      -1.49495546       3.09796091       0.00000000 NULL
P       -0.77223102       6.21851073       5.08763036       0.00000000 NULL
P        5.21144128       6.49884155       2.52438440       0.00000000 NULL
P        1.18956369      -1.77528603       5.66120728       0.00000000 NULL
P       -1.38424392       4.40148911       6.27200222       0.00000000 NULL
P        2.63763460       0.32206607       1.91358893       0.00000000 NULL
P        4.70808594       3.66996157       0.54223646       0.00000000 NULL
P        0.68620757       1.05359389       7.64335512       0.00000000 NULL
P        0.28033134       6.88273230       2.83328774       0.00000000 NULL
P        4.30220946      -2.15917690       5.35230376       0.00000000 NULL
P        2.33289880       6.29893105       4.44490491       0.00000000 NULL
P       -1.68897841      -1.57537591       3.74068617       0.00000000 NULL
P        5.61073428       5.21255496       4.40216573       0.00000000 NULL
P        1.58885693      -0.48899938       3.78342604       0.00000000 NULL
P       -0.36951486      -2.18988574       7.22444678       0.00000000 NULL
P        3.65236299       6.91344105       0.96114458       0.00000000 NULL
P       -0.08732779       2.59942311       1.72613180       0.00000000 NULL
P        3.93454954       2.12413224       6.45945961       0.00000000 NULL
P        5.98995505       0.99631841       3.72055404       0.00000000 NULL
P        1.96807700       3.72723722       4.46503781       0.00000000 NULL
P        2.60188713       1.54370360       4.85226605       0.00000000 NULL
P       -1.41999062       3.17985158       3.33332509       0.00000000 NULL
P        0.55230213       2.77104169       5.58517545       0.00000000 NULL
P        4.57418029       1.95251375       2.60041610       0.00000000 NULL
24
Lattice="8.111999452557825 5.330772946030024e-07 8.511326643058392e-07 -6.246836115263566e-07 9.517913617818659 -0.007461271069334475 -4.056000284243446 -4.7649146668749776 8.302202007728619" Properties=species:S:1:pos:R:3:initial_magmoms:R:1:castep_labels:S:1 n_minim_iter=9 pbc="T T T"
P        3.28041842      -1.50933544       3.14213303       0.00000000 NULL
P       -0.77558203       6.26233388       5.15260674       0.00000000 NULL
P        5.25581389       6.54453437       2.55189810       0.00000000 NULL
P        1.19981438      -1.79153567       5.74284209       0.00000000 NULL
P       -1.39519517       4.42906642       6.35644464       0.00000000 NULL
P        2.66080529       0.32393194       1.93829500       0.00000000 NULL
P        4.74827416       3.69839305       0.54714584       0.00000000 NULL
P        0.69227385       1.05460558       7.74759425       0.00000000 NULL
P        0.28238038       6.93255999       2.86719970       0.00000000 NULL
P        4.33838044      -2.17956142       5.42754029       0.00000000 NULL
P        2.35412027       6.34020398       4.50144372       0.00000000 NULL
P       -1.70187886      -1.58720566       3.79329586       0.00000000 NULL
P        5.65382107       5.24411952       4.45888398       0.00000000 NULL
P        1.59782178      -0.49112077       3.83585630       0.00000000 NULL
P       -0.37325748      -2.21107685       7.32642430       0.00000000 NULL
P        3.68274231       6.96407534       0.96831556       0.00000000 NULL
P       -0.08837288       2.61808049       1.74876234       0.00000000 NULL
P        3.96762637       2.13491803       6.54597758       0.00000000 NULL
P        6.04246627       1.00116592       3.77307998       0.00000000 NULL
P        1.98646629       3.75183288       4.52166038       0.00000000 NULL
P        2.62438791       1.55380403       4.91886137       0.00000000 NULL
P       -1.43161177       3.19919432       3.37587827       0.00000000 NULL
P        0.55480082       2.78667335       5.66109417       0.00000000 NULL
P        4.61080092       1.96632526       2.63364588       0.00000000 NULL
24
Lattice="8.09240318726809 5.317895326787888e-07 8.490765717787313e-07 -6.232295637103344e-07 9.492624845667873 -0.005480809846392377 -4.046202153594023 -4.750689235526292 8.312310639794187" Properties=species:S:1:pos:R:3:initial_magmoms:R:1:castep_labels:S:1 n_minim_iter=10 pbc="T T T"
P        3.27510547      -1.50550303       3.14662278       0.00000000 NULL
P       -0.77109684       6.24743813       5.16020608       0.00000000 NULL
P        5.24321428       6.52696934       2.55497350       0.00000000 NULL
P        1.19701290      -1.78503399       5.75185578       0.00000000 NULL
P       -1.39105086       4.41812761       6.36643616       0.00000000 NULL
P        2.65515147       0.32380740       1.94039258       0.00000000 NULL
P        4.73690687       3.69001640       0.54837783       0.00000000 NULL
P        0.69070469       1.05191889       7.75845135       0.00000000 NULL
P        0.28135405       6.91553872       2.87333086       0.00000000 NULL
P        4.32755597      -2.17360349       5.43349823       0.00000000 NULL
P        2.34974789       6.32271066       4.50890547       0.00000000 NULL
P       -1.69645311      -1.58077568       3.79792321       0.00000000 NULL
P        5.63640898       5.22782351       4.46634580       0.00000000 NULL
P        1.59020783      -0.48588810       3.84048356       0.00000000 NULL
P       -0.37265010      -2.20345305       7.33653539       0.00000000 NULL
P        3.67355156       6.94538820       0.97029356       0.00000000 NULL
P       -0.08865428       2.61203635       1.75287308       0.00000000 NULL
P        3.95754684       2.12989884       6.55395593       0.00000000 NULL
P        6.02896050       0.99988051       3.77961510       0.00000000 NULL
P        1.98275865       3.74205495       4.52721434       0.00000000 NULL
P        2.61843511       1.55276267       4.92703526       0.00000000 NULL
P       -1.42776643       3.18917234       3.37979347       0.00000000 NULL
P        0.55196982       2.77961710       5.66976827       0.00000000 NULL
P        4.59817179       1.96231817       2.63706087       0.00000000 NULL
24
Lattice="8.059625097101572 5.296355315753518e-07 8.456374069455681e-07 -6.204874592006291e-07 9.446500531958124 -0.0027269807025622917 -4.029813114567362 -4.7254286355047075 8.354213952857421" Properties=species:S:1:pos:R:3:initial_magmoms:R:1:castep_labels:S:1 n_minim_iter=11 pbc="T T T"
P        3.26844998      -1.49926052       3.16411502       0.00000000 NULL
P       -0.76136329       6.22033190       5.18737098       0.00000000 NULL
P        5.22223071       6.49419072       2.56580691       0.00000000 NULL
P        1.19241837      -1.77311907       5.78567950       0.00000000 NULL
P       -1.38344236       4.39735068       6.40241953       0.00000000 NULL
P        2.64637092       0.32372062       1.94906634       0.00000000 NULL
P        4.71799848       3.67564438       0.55159295       0.00000000 NULL
P        0.68818535       1.04542719       7.79989336       0.00000000 NULL
P        0.27934272       6.88483226       2.89234401       0.00000000 NULL
P        4.30915559      -2.16376074       5.45914221       0.00000000 NULL
P        2.34359454       6.28918839       4.53461918       0.00000000 NULL
P       -1.68621742      -1.56811712       3.81686662       0.00000000 NULL
P        5.60404624       5.19547940       4.49221801       0.00000000 NULL
P        1.57423413      -0.47440771       3.85926847       0.00000000 NULL
P       -0.37194753      -2.18996155       7.37613938       0.00000000 NULL
P        3.65786510       6.91103299       0.97534670       0.00000000 NULL
P       -0.08945919       2.60126378       1.76579695       0.00000000 NULL
P        3.94035288       2.11980770       6.58568918       0.00000000 NULL
P        6.00732546       0.99748879       3.80303102       0.00000000 NULL
P        1.97751265       3.72358296       4.54845555       0.00000000 NULL
P        2.60883502       1.55183151       4.95638244       0.00000000 NULL
P       -1.42097747       3.16923979       3.39510342       0.00000000 NULL
P        0.54583737       2.76581598       5.70151765       0.00000000 NULL
P        4.57565030       1.95525558       2.64996862       0.00000000 NULL
24
Lattice="7.764275704114349 5.102267461811844e-07 8.146485592922433e-07 -5.933150059962694e-07 9.002777793445217 0.01620730653271677 -3.8821384757062036 -4.488451585789908 8.755076680663095" Properties=species:S:1:pos:R:3:initial_magmoms:R:1:castep_labels:S:1 n_minim_iter=12 pbc="T T T"
P        3.21445897      -1.43999650       3.33501226       0.00000000 NULL
P       -0.66767958       5.95432223       5.43627065       0.00000000 NULL
P        5.03338148       6.17538115       2.65788094       0.00000000 NULL
P        1.15124378      -1.66105518       6.11340236       0.00000000 NULL
P       -1.31208832       4.19302015       6.74137216       0.00000000 NULL
P        2.57005028       0.32130550       2.02991062       0.00000000 NULL
P        4.54786920       3.53837461       0.57529421       0.00000000 NULL
P        0.66573072       0.97595129       8.19598899       0.00000000 NULL
P        0.26004735       6.58909198       3.07071032       0.00000000 NULL
P        4.14218550      -2.07476613       5.70057280       0.00000000 NULL
P        2.29300291       5.96062974       4.77663222       0.00000000 NULL
P       -1.58913437      -1.44630413       3.99465050       0.00000000 NULL
P        5.30259090       4.88030945       4.73830971       0.00000000 NULL
P        1.42045347      -0.36598345       4.03297365       0.00000000 NULL
P       -0.36686771      -2.06568385       7.75815268       0.00000000 NULL
P        3.51527028       6.58000962       1.01313030       0.00000000 NULL
P       -0.09684196       2.49703732       1.89095535       0.00000000 NULL
P        3.78529540       2.01728848       6.88032768       0.00000000 NULL
P        5.81382903       0.97037147       4.03138458       0.00000000 NULL
P        1.93169093       3.54395461       4.73989888       0.00000000 NULL
P        2.52411377       1.53933302       5.24041378       0.00000000 NULL
P       -1.35802400       2.97499262       3.53086899       0.00000000 NULL
P        0.48565278       2.63045692       6.00231820       0.00000000 NULL
P        4.36779102       1.88386896       2.76896496       0.00000000 NULL
24
Lattice="8.427777315492127 5.538285297675496e-07 8.842649218131286e-07 -6.415823841627128e-07 9.757000499661563 0.0038542920287750683 -4.2138892475143575 -4.8754247064258545 8.674532294076815" Properties=species:S:1:pos:R:3:initial_magmoms:R:1:castep_labels:S:1 n_minim_iter=13 pbc="T T T"
P        3.50880765      -1.56138717       3.31896867       0.00000000 NULL
P       -0.70508174       6.44296246       5.35941693       0.00000000 NULL
P        5.46100060       6.67850482       2.61796776       0.00000000 NULL
P        1.24711214      -1.79692928       6.06041824       0.00000000 NULL
P       -1.41304764       4.53544741       6.66264094       0.00000000 NULL
P        2.80084178       0.34612778       2.01574451       0.00000000 NULL
P        4.93803910       3.84020707       0.55180244       0.00000000 NULL
P        0.72414983       1.04136841       8.12658346       0.00000000 NULL
P        0.27954084       7.14895785       3.04091893       0.00000000 NULL
P        4.49342984      -2.26738244       5.63746688       0.00000000 NULL
P        2.50723718       6.43118266       4.73673190       0.00000000 NULL
P       -1.70665087      -1.54960751       3.94165348       0.00000000 NULL
P        5.72240248       5.26374935       4.70459425       0.00000000 NULL
P        1.50851427      -0.38217378       3.97379181       0.00000000 NULL
P       -0.40352521      -2.24878560       7.70224447       0.00000000 NULL
P        3.81036354       7.13036092       0.97614119       0.00000000 NULL
P       -0.10109222       2.70760129       1.87439837       0.00000000 NULL
P        4.11279596       2.17397408       6.80398735       0.00000000 NULL
P        6.30337800       1.03084078       4.01405347       0.00000000 NULL
P        2.08948909       3.85073487       4.66433272       0.00000000 NULL
P        2.75158453       1.65557211       5.21154781       0.00000000 NULL
P       -1.46230405       3.22600308       3.46683763       0.00000000 NULL
P        0.51187370       2.85104213       5.93931201       0.00000000 NULL
P        4.72576275       2.03053332       2.73907385       0.00000000 NULL
24
Lattice="7.948368781318492 5.223243604239581e-07 8.339640970105646e-07 -6.114685989552185e-07 9.19400242124109 0.06945920410249565 -3.9741849570628633 -4.541551876483113 8.24273799148741" Properties=species:S:1:pos:R:3:initial_magmoms:R:1:castep_labels:S:1 n_minim_iter=14 pbc="T T T"
P        3.30912869      -1.45064311       3.15812968       0.00000000 NULL
P       -0.66505641       6.10309316       5.15406656       0.00000000 NULL
P        5.15001801       6.31013836       2.54374497       0.00000000 NULL
P        1.17583380      -1.65768807       5.76845166       0.00000000 NULL
P       -1.33169484       4.31503014       6.38366236       0.00000000 NULL
P        2.64249028       0.33741982       1.92853374       0.00000000 NULL
P        4.65670036       3.62279032       0.55096328       0.00000000 NULL
P        0.68251538       1.02965991       7.76123324       0.00000000 NULL
P        0.26282910       6.75770796       2.95350637       0.00000000 NULL
P        4.23701382      -2.10525778       5.35869006       0.00000000 NULL
P        2.36586629       6.09204901       4.56339025       0.00000000 NULL
P       -1.60831752      -1.43959909       3.74880579       0.00000000 NULL
P        5.39687273       4.99008523       4.52605905       0.00000000 NULL
P        1.42268876      -0.33763490       3.78613763       0.00000000 NULL
P       -0.37957624      -2.07097254       7.33284782       0.00000000 NULL
P        3.59460823       6.72342263       0.97934848       0.00000000 NULL
P       -0.09618161       2.56307147       1.80828801       0.00000000 NULL
P        3.87800232       2.08937866       6.50390834       0.00000000 NULL
P        5.94351187       0.99932791       3.83431465       0.00000000 NULL
P        1.96932724       3.65312249       4.47788214       0.00000000 NULL
P        2.59469133       1.59436692       4.98410016       0.00000000 NULL
P       -1.37949299       3.05808304       3.32809592       0.00000000 NULL
P        0.48373740       2.72394102       5.68337769       0.00000000 NULL
P        4.45792216       1.92850918       2.62881879       0.00000000 NULL
24
Lattice="7.994793166115749 5.253751231332442e-07 8.388350675473467e-07 -6.15785704991099e-07 9.22223314042821 0.09292347374104283 -3.9973971623727205 -4.536935246616648 8.362901225627104" Properties=species:S:1:pos:R:3:initial_magmoms:R:1:castep_labels:S:1 n_minim_iter=15 pbc="T T T"
P        3.32914318      -1.44744551       3.20595787       0.00000000 NULL
P       -0.66825412       6.13274291       5.24986584       0.00000000 NULL
P        5.18046075       6.33489650       2.59894918       0.00000000 NULL
P        1.18306435      -1.64959885       5.85687493       0.00000000 NULL
P       -1.33877467       4.34219710       6.49663247       0.00000000 NULL
P        2.65862265       0.34310021       1.95919110       0.00000000 NULL
P        4.68416139       3.63539601       0.56958178       0.00000000 NULL
P        0.68676421       1.04990157       7.88624222       0.00000000 NULL
P        0.26417161       6.78556853       3.01624989       0.00000000 NULL
P        4.26156853      -2.10027101       5.43957402       0.00000000 NULL
P        2.38051250       6.11978323       4.65200066       0.00000000 NULL
P       -1.61688350      -1.43448595       3.80382286       0.00000000 NULL
P        5.42684539       5.01485640       4.61118537       0.00000000 NULL
P        1.42944924      -0.32955873       3.84463878       0.00000000 NULL
P       -0.38246866      -2.06097177       7.44494461       0.00000000 NULL
P        3.61492802       6.74626920       1.01087916       0.00000000 NULL
P       -0.09583603       2.57472811       1.84167499       0.00000000 NULL
P        3.90156008       2.11056937       6.61414884       0.00000000 NULL
P        5.97820568       1.01105043       3.89878634       0.00000000 NULL
P        1.98080885       3.67424731       4.55703793       0.00000000 NULL
P        2.60960403       1.61063954       5.06624209       0.00000000 NULL
P       -1.38779247       3.07465776       3.38958147       0.00000000 NULL
P        0.48549740       2.74540136       5.78013753       0.00000000 NULL
P        4.48289436       1.93989619       2.67568643       0.00000000 NULL
24
Lattice="7.968396704754496 5.236404886310342e-07 8.360654802776619e-07 -6.148109831309703e-07 9.185216640716671 0.10681756208589988 -3.9841989367615605 -4.507335063833906 8.392678404790553" Properties=species:S:1:pos:R:3:initial_magmoms:R:1:castep_labels:S:1 n_minim_iter=16 pbc="T T T"
P        3.31881999      -1.43687153       3.21898541       0.00000000 NULL
P       -0.66537908       6.11475261       5.28050957       0.00000000 NULL
P        5.16352778       6.31286817       2.61922623       0.00000000 NULL
P        1.17932961      -1.63498684       5.88026913       0.00000000 NULL
P       -1.33366227       4.33332720       6.53148523       0.00000000 NULL
P        2.65053683       0.34455379       1.96800960       0.00000000 NULL
P        4.66880854       3.62169801       0.57776100       0.00000000 NULL
P        0.68460959       1.05618325       7.92173425       0.00000000 NULL
P        0.26306127       6.76321826       3.03948498       0.00000000 NULL
P        4.24725995      -2.08533706       5.46001019       0.00000000 NULL
P        2.37346221       6.10086902       4.68241290       0.00000000 NULL
P       -1.61073555      -1.42298806       3.81708188       0.00000000 NULL
P        5.40761017       5.00058821       4.63974649       0.00000000 NULL
P        1.42341225      -0.32270685       3.85974892       0.00000000 NULL
P       -0.38155051      -2.04241313       7.47484967       0.00000000 NULL
P        3.60264794       6.72029425       1.02464536       0.00000000 NULL
P       -0.09501821       2.56679519       1.85268131       0.00000000 NULL
P        3.88917967       2.11108596       6.64681378       0.00000000 NULL
P        5.95823094       1.01261545       3.91790802       0.00000000 NULL
P        1.97403234       3.66526598       4.58158750       0.00000000 NULL
P        2.60093788       1.61148956       5.09033443       0.00000000 NULL
P       -1.38326039       3.06639143       3.40916039       0.00000000 NULL
P        0.48312504       2.74261282       5.80875711       0.00000000 NULL
P        4.46732377       1.93526842       2.69073810       0.00000000 NULL
24
Lattice="7.921840666725429 5.205810743490901e-07 8.311806963515456e-07 -6.126242112513915e-07 9.12134526254062 0.1259794268488555 -3.9609209299285766 -4.4601020670824365 8.479195922511018" Properties=species:S:1:pos:R:3:initial_magmoms:R:1:castep_labels:S:1 n_minim_iter=17 pbc="T T T"
P        3.30132205      -1.41984230       3.25587860       0.00000000 NULL
P       -0.65959900       6.08108500       5.34929573       0.00000000 NULL
P        5.13369403       6.27366650       2.66050261       0.00000000 NULL
P        1.17277387      -1.61242356       5.94467211       0.00000000 NULL
P       -1.32404653       4.31482362       6.61476205       0.00000000 NULL
P        2.63687455       0.34641899       1.99041214       0.00000000 NULL
P        4.64177899       3.59769498       0.59217933       0.00000000 NULL
P        0.68085804       1.06354790       8.01299529       0.00000000 NULL
P        0.26096740       6.72404114       3.08768949       0.00000000 NULL
P        4.22188806      -2.06279832       5.51748504       0.00000000 NULL
P        2.36173710       6.06534108       4.75092348       0.00000000 NULL
P       -1.59918265      -1.40409850       3.85425065       0.00000000 NULL
P        5.37243457       4.97347821       4.70530855       0.00000000 NULL
P        1.41151467      -0.31223524       3.89986622       0.00000000 NULL
P       -0.38018952      -2.01363400       7.55730520       0.00000000 NULL
P        3.58073092       6.67487674       1.04786919       0.00000000 NULL
P       -0.09319950       2.55226555       1.87693821       0.00000000 NULL
P        3.86772035       2.10897723       6.72823624       0.00000000 NULL
P        5.92278535       1.01347482       3.96655216       0.00000000 NULL
P        1.96186477       3.64776823       4.63862272       0.00000000 NULL
P        2.58585068       1.61079733       5.15087928       0.00000000 NULL
P       -1.37506957       3.05044527       3.45429490       0.00000000 NULL
P        0.47812885       2.73553992       5.87875118       0.00000000 NULL
P        4.43904957       1.92570293       2.72642339       0.00000000 NULL
24
Lattice="7.873402110769162 5.173979510596253e-07 8.260983936021311e-07 -6.07790445356938e-07 9.069312866876842 0.11249831155915996 -3.9367016618395834 -4.444848104710142 8.563893840729948" Properties=species:S:1:pos:R:3:initial_magmoms:R:1:castep_labels:S:1 n_minim_iter=18 pbc="T T T"
P        3.28441721      -1.41453732       3.29297300       0.00000000 NULL
P       -0.65228455       6.03900160       5.38341811       0.00000000 NULL
P        5.10229560       6.23466136       2.67382389       0.00000000 NULL
P        1.16559471      -1.61019685       6.00256761       0.00000000 NULL
P       -1.31309707       4.28147606       6.66885070       0.00000000 NULL
P        2.62360474       0.34298813       2.00754028       0.00000000 NULL
P        4.61361393       3.57608536       0.59190050       0.00000000 NULL
P        0.67691226       1.04837909       8.08449089       0.00000000 NULL
P        0.25866053       6.68563146       3.10639785       0.00000000 NULL
P        4.19536190      -2.06116707       5.56999346       0.00000000 NULL
P        2.35067634       6.02189982       4.79051811       0.00000000 NULL
P       -1.58602414      -1.39743567       3.88587281       0.00000000 NULL
P        5.33387234       4.93794646       4.74540735       0.00000000 NULL
P        1.39717171      -0.31348191       3.93098419       0.00000000 NULL
P       -0.37892934      -2.01032294       7.63272779       0.00000000 NULL
P        3.55777184       6.63478725       1.04366339       0.00000000 NULL
P       -0.09102960       2.53560424       1.88851760       0.00000000 NULL
P        3.84567097       2.08886011       6.78787363       0.00000000 NULL
P        5.88529173       1.00291835       4.00544415       0.00000000 NULL
P        1.94859043       3.62154626       4.67094751       0.00000000 NULL
P        2.57100621       1.59637176       5.19658263       0.00000000 NULL
P       -1.36569476       3.02809242       3.47980834       0.00000000 NULL
P        0.47168039       2.71476710       5.92630035       0.00000000 NULL
P        4.40838183       1.90969732       2.75009101       0.00000000 NULL
