14
Lattice="5.23657 0.0 0.0 0.0 5.352449999999999 -3.7730275137137053e-16 0.0 -2.418564458345965 11.05545104954681" Properties=species:S:1:pos:R:3:initial_magmoms:R:1:castep_labels:S:1 n_minim_iter=1 pbc="T T T"
P        2.45399128       2.45977197       9.36238058       0.00000000 NULL
P        2.78257872      -0.21645303       9.36238058       0.00000000 NULL
P        3.84080154       1.37419760       1.55388566       0.00000000 NULL
P        1.39576846       4.05042260       1.55388566       0.00000000 NULL
P        2.60781762       2.78977623       0.43618066       0.00000000 NULL
P        2.62875238       0.11355123       0.43618066       0.00000000 NULL
P        0.85460718       2.23190353      10.60897776       0.00000000 NULL
P        4.38196282      -0.44432147      10.60897776       0.00000000 NULL
P        4.62726994       2.11124540       3.48017086       0.00000000 NULL
P        0.60930006      -0.56497960       3.48017086       0.00000000 NULL
P        4.38192931       4.87240849       2.07913456       0.00000000 NULL
P        0.85464069       2.19618349       2.07913456       0.00000000 NULL
P        0.55382069       1.86808514       5.12997251       0.00000000 NULL
P        4.68274931      -0.80813986       5.12997251       0.00000000 NULL
14
Lattice="5.252077217687235 0.0 0.0 0.0 5.3679743564806905 -0.0023098639122509446 0.0 -2.4303503216862854 11.098181795965093" Properties=species:S:1:pos:R:3:initial_magmoms:R:1:castep_labels:S:1 n_minim_iter=2 pbc="T T T"
P        2.46147650       2.46287714       9.39641843       0.00000000 NULL
P        2.79060072      -0.22111004       9.39757336       0.00000000 NULL
P        3.85215995       1.37770714       1.55926513       0.00000000 NULL
P        1.39991727       4.06169432       1.55811020       0.00000000 NULL
P        2.61554564       2.79768739       0.43647719       0.00000000 NULL
P        2.63653158       0.11370021       0.43763212       0.00000000 NULL
P        0.85672472       2.23384781      10.64788572       0.00000000 NULL
P        4.39535250      -0.45013937      10.64904065       0.00000000 NULL
P        4.64073888       2.11607457       3.49256625       0.00000000 NULL
P        0.61133834      -0.56791261       3.49372118       0.00000000 NULL
P        4.39483954       4.88524418       2.08491828       0.00000000 NULL
P        0.85723767       2.20125700       2.08607322       0.00000000 NULL
P        0.55550463       1.87121852       5.14864657       0.00000000 NULL
P        4.69657259      -0.81276866       5.14980150       0.00000000 NULL
14
Lattice="5.536593211837339 0.0 0.0 0.0 5.650377125166558 -0.044818428921212794 0.0 -2.6457583421115474 11.890321280901592" Properties=species:S:1:pos:R:3:initial_magmoms:R:1:castep_labels:S:1 n_minim_iter=3 pbc="T T T"
P        2.59894528       2.51853421      10.02760403       0.00000000 NULL
P        2.93764793      -0.30665435      10.05001324       0.00000000 NULL
P        4.06069137       1.44154124       1.65917744       0.00000000 NULL
P        1.47590184       4.26672980       1.63676822       0.00000000 NULL
P        2.75734021       2.94156671       0.44189312       0.00000000 NULL
P        2.77925301       0.11637815       0.46430233       0.00000000 NULL
P        0.89527859       2.26829250      11.36925658       0.00000000 NULL
P        4.64131462      -0.55689607      11.39166580       0.00000000 NULL
P        4.88781988       2.20384899       3.72275717       0.00000000 NULL
P        0.64877333      -0.62133957       3.74516639       0.00000000 NULL
P        4.63174016       5.11819071       2.19260604       0.00000000 NULL
P        0.90485305       2.29300215       2.21501526       0.00000000 NULL
P        0.58627554       1.92764075       5.49499639       0.00000000 NULL
P        4.95031767      -0.89754781       5.51740560       0.00000000 NULL
14
Lattice="5.5801357277625305 0.0 0.0 0.0 5.668902360093348 -0.0411866822114615 0.0 -2.64662782745049 12.049113669166875" Properties=species:S:1:pos:R:3:initial_magmoms:R:1:castep_labels:S:1 n_minim_iter=4 pbc="T T T"
P        2.62094358       2.53345761      10.16580712       0.00000000 NULL
P        2.95919215      -0.30099357      10.18640046       0.00000000 NULL
P        4.09446883       1.44891245       1.68432091       0.00000000 NULL
P        1.48566690       4.28336363       1.66372757       0.00000000 NULL
P        2.77939870       2.95087063       0.44669715       0.00000000 NULL
P        2.80073702       0.11641945       0.46729049       0.00000000 NULL
P        0.89937430       2.28369888      11.52270963       0.00000000 NULL
P        4.68076143      -0.55075230      11.54330297       0.00000000 NULL
P        4.92655035       2.21660493       3.77765199       0.00000000 NULL
P        0.65358538      -0.61784625       3.79824533       0.00000000 NULL
P        4.66882963       5.13286032       2.22740625       0.00000000 NULL
P        0.91130610       2.29840914       2.24799959       0.00000000 NULL
P        0.58912730       1.93665107       5.56952987       0.00000000 NULL
P        4.99100842      -0.89780011       5.59012322       0.00000000 NULL
14
Lattice="5.586160965393477 0.0 0.0 0.0 5.648225580148244 -0.035022899562981415 0.0 -2.6245535395190696 12.119122954650368" Properties=species:S:1:pos:R:3:initial_magmoms:R:1:castep_labels:S:1 n_minim_iter=5 pbc="T T T"
P        2.62514691       2.53482623      10.23196862       0.00000000 NULL
P        2.96101406      -0.28928656      10.24948007       0.00000000 NULL
P        4.10121672       1.44702331       1.69794045       0.00000000 NULL
P        1.48494425       4.27113610       1.68042900       0.00000000 NULL
P        2.78292182       2.93972767       0.44856493       0.00000000 NULL
P        2.80323914       0.11561488       0.46607638       0.00000000 NULL
P        0.89787287       2.28783548      11.59293753       0.00000000 NULL
P        4.68828809      -0.53627731      11.61044898       0.00000000 NULL
P        4.93293979       2.21579077       3.80619080       0.00000000 NULL
P        0.65322117      -0.60832202       3.82370225       0.00000000 NULL
P        4.67502013       5.11268739       2.24844858       0.00000000 NULL
P        0.91114084       2.28857460       2.26596003       0.00000000 NULL
P        0.58730602       1.93436046       5.60345161       0.00000000 NULL
P        4.99885495      -0.88975233       5.62096305       0.00000000 NULL
14
Lattice="5.584000800205152 0.0 0.0 0.0 5.634716388403654 -0.03314501578228306 0.0 -2.6145705031098116 12.13935014329394" Properties=species:S:1:pos:R:3:initial_magmoms:R:1:castep_labels:S:1 n_minim_iter=6 pbc="T T T"
P        2.62462952       2.53194181      10.25141791       0.00000000 NULL
P        2.95937128      -0.28541639      10.26799042       0.00000000 NULL
P        4.10058612       1.44477558       1.70209210       0.00000000 NULL
P        1.48341468       4.26213377       1.68551960       0.00000000 NULL
P        2.78202323       2.93251530       0.44863970       0.00000000 NULL
P        2.80197757       0.11515710       0.46521221       0.00000000 NULL
P        0.89664465       2.28612473      11.61308588       0.00000000 NULL
P        4.68735615      -0.53123346      11.62965838       0.00000000 NULL
P        4.93152486       2.21298248       3.81480708       0.00000000 NULL
P        0.65247594      -0.60437571       3.83137958       0.00000000 NULL
P        4.67372580       5.09961828       2.25488274       0.00000000 NULL
P        0.91027500       2.28226009       2.27145524       0.00000000 NULL
P        0.58603867       1.93105635       5.61303385       0.00000000 NULL
P        4.99796213      -0.88630184       5.62960635       0.00000000 NULL
14
Lattice="5.5602340826518795 0.0 0.0 0.0 5.499961816324516 -0.01870153223719283 0.0 -2.523847218642346 12.347836191598965" Properties=species:S:1:pos:R:3:initial_magmoms:R:1:castep_labels:S:1 n_minim_iter=7 pbc="T T T"
P        2.61811775       2.49566284      10.44723094       0.00000000 NULL
P        2.94211633      -0.25431807      10.45658171       0.00000000 NULL
P        4.09227903       1.42089784       1.74290326       0.00000000 NULL
P        1.46795505       4.17087875       1.73355249       0.00000000 NULL
P        2.77166946       2.86054402       0.44762012       0.00000000 NULL
P        2.78856462       0.11056311       0.45697089       0.00000000 NULL
P        0.88456698       2.26033812      11.81711108       0.00000000 NULL
P        4.67566710      -0.48964279      11.82646184       0.00000000 NULL
P        4.91523611       2.18130584       3.90023920       0.00000000 NULL
P        0.64499797      -0.56867507       3.90958997       0.00000000 NULL
P        4.65881469       4.96837016       2.31607898       0.00000000 NULL
P        0.90141940       2.21838926       2.32542974       0.00000000 NULL
P        0.57354369       1.89419751       5.70956756       0.00000000 NULL
P        4.98669039      -0.85578340       5.71891832       0.00000000 NULL
14
Lattice="5.511680174022738 0.0 0.0 0.0 5.337865810953073 -0.03864418655076189 0.0 -2.4917937480130927 12.710303094036727" Properties=species:S:1:pos:R:3:initial_magmoms:R:1:castep_labels:S:1 n_minim_iter=8 pbc="T T T"
P        2.59895645       2.38668066      10.74371622       0.00000000 NULL
P        2.91272372      -0.28225225      10.76303831       0.00000000 NULL
P        4.06606853       1.38197094       1.79427154       0.00000000 NULL
P        1.44561165       4.05090384       1.77494945       0.00000000 NULL
P        2.74697755       2.77306236       0.43209803       0.00000000 NULL
P        2.76470262       0.10412945       0.45142013       0.00000000 NULL
P        0.86963185       2.15439955      12.13952654       0.00000000 NULL
P        4.64204832      -0.51453335      12.15884863       0.00000000 NULL
P        4.87714478       2.11532419       4.01548546       0.00000000 NULL
P        0.63453540      -0.55360872       4.03480755       0.00000000 NULL
P        4.62394364       4.79699573       2.37512392       0.00000000 NULL
P        0.88773653       2.12806283       2.39444602       0.00000000 NULL
P        0.55787164       1.81497138       5.85843441       0.00000000 NULL
P        4.95380854      -0.85396153       5.87775650       0.00000000 NULL
14
Lattice="5.424570948680821 0.0 0.0 0.0 5.204294984335441 -0.08551116800736225 0.0 -2.5282417233148995 13.188507088820614" Properties=species:S:1:pos:R:3:initial_magmoms:R:1:castep_labels:S:1 n_minim_iter=9 pbc="T T T"
P        2.55967756       2.24364557      11.11496184       0.00000000 NULL
P        2.86489339      -0.35850192      11.15771743       0.00000000 NULL
P        4.01172608       1.34472389       1.85252053       0.00000000 NULL
P        1.41284487       3.94687138       1.80976495       0.00000000 NULL
P        2.70130220       2.69947590       0.40397635       0.00000000 NULL
P        2.72326875       0.09732841       0.44673194       0.00000000 NULL
P        0.85026304       2.00666370      12.55003905       0.00000000 NULL
P        4.57430791      -0.59548379      12.59279463       0.00000000 NULL
P        4.80540940       2.04120070       4.15313786       0.00000000 NULL
P        0.61916154      -0.56094679       4.19589344       0.00000000 NULL
P        4.55726479       4.63926499       2.43361110       0.00000000 NULL
P        0.86730616       2.03711750       2.47636669       0.00000000 NULL
P        0.53817706       1.72064551       6.04512357       0.00000000 NULL
P        4.88639389      -0.88150199       6.08787916       0.00000000 NULL
14
Lattice="5.253690633371314 0.0 0.0 0.0 5.095270600177422 -0.13203052330984233 0.0 -2.57506326387771 13.694747438685615" Properties=species:S:1:pos:R:3:initial_magmoms:R:1:castep_labels:S:1 n_minim_iter=10 pbc="T T T"
P        2.47860464       2.11217791      11.51165659       0.00000000 NULL
P        2.77508599      -0.43545739      11.57767185       0.00000000 NULL
P        3.89724088       1.31690171       1.91469212       0.00000000 NULL
P        1.35644975       3.86453701       1.84867686       0.00000000 NULL
P        2.61182029       2.63941697       0.37130731       0.00000000 NULL
P        2.64187034       0.09178167       0.43732257       0.00000000 NULL
P        0.81875072       1.86982412      12.98621385       0.00000000 NULL
P        4.43493991      -0.67781118      13.05222911       0.00000000 NULL
P        4.66059952       1.97623034       4.30306128       0.00000000 NULL
P        0.59309112      -0.57140496       4.36907654       0.00000000 NULL
P        4.42073329       4.50053704       2.50450687       0.00000000 NULL
P        0.83295734       1.95290174       2.57052213       0.00000000 NULL
P        0.50938026       1.63607464       6.24106180       0.00000000 NULL
P        4.74431037      -0.91156066       6.30707706       0.00000000 NULL
14
Lattice="5.13307347332228 0.0 0.0 0.0 5.111005555694677 -0.11335865518494007 0.0 -2.5436066561764203 14.398517874542849" Properties=species:S:1:pos:R:3:initial_magmoms:R:1:castep_labels:S:1 n_minim_iter=11 pbc="T T T"
P        2.41976805       2.15167883      12.13142247       0.00000000 NULL
P        2.71330542      -0.40382395      12.18810179       0.00000000 NULL
P        3.82024149       1.34377282       2.02823964       0.00000000 NULL
P        1.31283199       3.89927560       1.97156031       0.00000000 NULL
P        2.54363799       2.64971695       0.37464815       0.00000000 NULL
P        2.58943548       0.09421418       0.43132748       0.00000000 NULL
P        0.79308459       1.91335467      13.66306491       0.00000000 NULL
P        4.33998888      -0.64214811      13.71974424       0.00000000 NULL
P        4.55934488       2.00363274       4.55736829       0.00000000 NULL
P        0.57372859      -0.55187003       4.61404761       0.00000000 NULL
P        4.32367241       4.49652681       2.68330672       0.00000000 NULL
P        0.80940106       1.94102403       2.73998605       0.00000000 NULL
P        0.48684487       1.65843652       6.55962501       0.00000000 NULL
P        4.64622860      -0.89706625       6.61630434       0.00000000 NULL
14
Lattice="5.053715712771002 0.0 0.0 0.0 5.0020819366863405 -0.08469093913163543 0.0 -2.4351753162970042 14.225880747142076" Properties=species:S:1:pos:R:3:initial_magmoms:R:1:castep_labels:S:1 n_minim_iter=12 pbc="T T T"
P        2.38147159       2.15159899      12.01188402       0.00000000 NULL
P        2.67224412      -0.34944197      12.05422949       0.00000000 NULL
P        3.76303713       1.32499716       2.01368632       0.00000000 NULL
P        1.29067858       3.82603813       1.97134085       0.00000000 NULL
P        2.50266318       2.59508670       0.38057701       0.00000000 NULL
P        2.55105254       0.09404573       0.42292248       0.00000000 NULL
P        0.78084295       1.92439553      13.52024856       0.00000000 NULL
P        4.27287276      -0.57664544      13.56259403       0.00000000 NULL
P        4.49093067       1.97934727       4.52103366       0.00000000 NULL
P        0.56278505      -0.52169370       4.56337913       0.00000000 NULL
P        4.25736603       4.40796734       2.68205390       0.00000000 NULL
P        0.79634969       1.90692637       2.72439937       0.00000000 NULL
P        0.47698189       1.64825396       6.49143054       0.00000000 NULL
P        4.57673382      -0.85278700       6.53377601       0.00000000 NULL
14
Lattice="5.058786962353792 0.0 0.0 0.0 5.033611373583073 -0.07710426553391798 0.0 -2.433752019840544 14.33347944464953" Properties=species:S:1:pos:R:3:initial_magmoms:R:1:castep_labels:S:1 n_minim_iter=13 pbc="T T T"
P        2.38351935       2.17934228      12.10997275       0.00000000 NULL
P        2.67526761      -0.33746341      12.14852489       0.00000000 NULL
P        3.76778719       1.33776739       2.03228818       0.00000000 NULL
P        1.29099977       3.85457307       1.99373604       0.00000000 NULL
P        2.50360215       2.61229487       0.38523011       0.00000000 NULL
P        2.55518481       0.09548919       0.42378224       0.00000000 NULL
P        0.78063661       1.95236348      13.62782176       0.00000000 NULL
P        4.27815035      -0.56444221      13.66637389       0.00000000 NULL
P        4.49609753       1.99787203       4.56179888       0.00000000 NULL
P        0.56268944      -0.51893366       4.60035101       0.00000000 NULL
P        4.26149544       4.43607327       2.71360134       0.00000000 NULL
P        0.79729152       1.91926759       2.75215347       0.00000000 NULL
P        0.47661800       1.66652154       6.54320174       0.00000000 NULL
P        4.58216896      -0.85028414       6.58175387       0.00000000 NULL
14
Lattice="5.045492836264972 0.0 0.0 0.0 5.029431948074442 -0.06604860242974339 0.0 -2.4090280985970076 14.36457652694651" Properties=species:S:1:pos:R:3:initial_magmoms:R:1:castep_labels:S:1 n_minim_iter=14 pbc="T T T"
P        2.37685101       2.19672946      12.14647620       0.00000000 NULL
P        2.66864183      -0.31798652      12.17950051       0.00000000 NULL
P        3.75885608       1.34163785       2.04093521       0.00000000 NULL
P        1.28663676       3.85635382       2.00791091       0.00000000 NULL
P        2.49559840       2.61110643       0.38956643       0.00000000 NULL
P        2.54989443       0.09639045       0.42259073       0.00000000 NULL
P        0.77797360       1.97226974      13.66539436       0.00000000 NULL
P        4.26751924      -0.54244623      13.69841866       0.00000000 NULL
P        4.48516943       2.00412552       4.57984528       0.00000000 NULL
P        0.56032341      -0.51059046       4.61286958       0.00000000 NULL
P        4.25024364       4.43423891       2.73347611       0.00000000 NULL
P        0.79524920       1.91952294       2.76650041       0.00000000 NULL
P        0.47433888       1.67574136       6.56139105       0.00000000 NULL
P        4.57115396      -0.83897461       6.59441536       0.00000000 NULL
14
Lattice="4.9439885640402625 0.0 0.0 0.0 5.007335958898469 0.025806012885742982 0.0 -2.209318661350825 14.66132540472631" Properties=species:S:1:pos:R:3:initial_magmoms:R:1:castep_labels:S:1 n_minim_iter=15 pbc="T T T"
P        2.32569478       2.34714260      12.48211696       0.00000000 NULL
P        2.61829379      -0.15652538      12.46921395       0.00000000 NULL
P        3.69102212       1.37741275       2.11851014       0.00000000 NULL
P        1.25296645       3.88108072       2.13141314       0.00000000 NULL
P        2.43327800       2.60770807       0.42640743       0.00000000 NULL
P        2.51071056       0.10404009       0.41350442       0.00000000 NULL
P        0.75729171       2.14259100      14.01369208       0.00000000 NULL
P        4.18669685      -0.36107698      14.00078907       0.00000000 NULL
P        4.40236566       2.06134422       4.74258692       0.00000000 NULL
P        0.54162291      -0.44232376       4.72968391       0.00000000 NULL
P        4.16386613       4.43030537       2.90707612       0.00000000 NULL
P        0.78012244       1.92663739       2.89417312       0.00000000 NULL
P        0.45645655       1.75657176       6.72956183       0.00000000 NULL
P        4.48753201      -0.74709622       6.71665882       0.00000000 NULL
14
Lattice="4.669535287196065 0.0 0.0 0.0 4.954037579915758 0.14567802703107097 0.0 -1.9376403178465864 15.241494075166333" Properties=species:S:1:pos:R:3:initial_magmoms:R:1:castep_labels:S:1 n_minim_iter=16 pbc="T T T"
P        2.18919241       2.53281178      13.08258873       0.00000000 NULL
P        2.48034288       0.05579299      13.00974972       0.00000000 NULL
P        3.49691917       1.42684033       2.24356975       0.00000000 NULL
P        1.17261612       3.90385912       2.31640876       0.00000000 NULL
P        2.26871668       2.59554571       0.47487402       0.00000000 NULL
P        2.40081861       0.11852692       0.40203501       0.00000000 NULL
P        0.70893230       2.35047137      14.64050378       0.00000000 NULL
P        3.96060299      -0.12654742      14.56766477       0.00000000 NULL
P        4.17593053       2.12646229       5.02505894       0.00000000 NULL
P        0.49360476      -0.35055650       4.95221993       0.00000000 NULL
P        3.92314518       4.39002774       3.20407783       0.00000000 NULL
P        0.74639011       1.91300895       3.13123881       0.00000000 NULL
P        0.41542896       1.85582697       7.01926402       0.00000000 NULL
P        4.25410633      -0.62119182       6.94642501       0.00000000 NULL
14
Lattice="4.6480870730796555 0.0 0.0 0.0 5.073400720183963 0.17505572211509202 0.0 -1.93089644891541 15.94529072001248" Properties=species:S:1:pos:R:3:initial_magmoms:R:1:castep_labels:S:1 n_minim_iter=17 pbc="T T T"
P        2.17871720       2.63906379      13.69543726       0.00000000 NULL
P        2.46936987       0.10236343      13.60790940       0.00000000 NULL
P        3.47734249       1.47037758       2.34631712       0.00000000 NULL
P        1.17074458       4.00707794       2.43384498       0.00000000 NULL
P        2.25028052       2.66442035       0.51653858       0.00000000 NULL
P        2.39780655       0.12771999       0.42901072       0.00000000 NULL
P        0.70485879       2.45512283      15.32944058       0.00000000 NULL
P        3.94322828      -0.08157753      15.24191272       0.00000000 NULL
P        4.15975451       2.19368563       5.27192871       0.00000000 NULL
P        0.48833256      -0.34301473       5.18440085       0.00000000 NULL
P        3.89377288       4.50248015       3.39576122       0.00000000 NULL
P        0.75431419       1.96577979       3.30823335       0.00000000 NULL
P        0.41276253       1.92693031       7.34947125       0.00000000 NULL
P        4.23532454      -0.60977005       7.26194338       0.00000000 NULL
14
Lattice="4.567273392510102 0.0 0.0 0.0 4.942773034678397 0.18770820103190838 0.0 -1.8457372528911522 15.704915960118695" Properties=species:S:1:pos:R:3:initial_magmoms:R:1:castep_labels:S:1 n_minim_iter=18 pbc="T T T"
P        2.14032342       2.60113711      13.50301846       0.00000000 NULL
P        2.42694997       0.12975059      13.40916436       0.00000000 NULL
P        3.41692375       1.43705027       2.31499457       0.00000000 NULL
P        1.15034964       3.90843679       2.40884867       0.00000000 NULL
P        2.21069438       2.59734669       0.51775861       0.00000000 NULL
P        2.35657901       0.12596018       0.42390451       0.00000000 NULL
P        0.69401265       2.42545163      15.11027956       0.00000000 NULL
P        3.87326075      -0.04593489      15.01642546       0.00000000 NULL
P        4.08866091       2.14851544       5.20252193       0.00000000 NULL
P        0.47861249      -0.32287108       5.10866783       0.00000000 NULL
P        3.82511278       4.39389525       3.36168169       0.00000000 NULL
P        0.74216062       1.92250874       3.26782759       0.00000000 NULL
P        0.40468412       1.89371357       7.24346994       0.00000000 NULL
P        4.16258927      -0.57767294       7.14961584       0.00000000 NULL
14
Lattice="4.549294816865813 0.0 0.0 0.0 4.943335106433935 0.19356068005231372 0.0 -1.8339029735316792 15.731343350208231" Properties=species:S:1:pos:R:3:initial_magmoms:R:1:castep_labels:S:1 n_minim_iter=19 pbc="T T T"
P        2.13164237       2.61155612      13.52925953       0.00000000 NULL
P        2.41765245       0.13988856      13.43247919       0.00000000 NULL
P        3.40302576       1.43890549       2.31904984       0.00000000 NULL
P        1.14626906       3.91057305       2.41583018       0.00000000 NULL
P        2.20115421       2.59877307       0.52346514       0.00000000 NULL
P        2.34814061       0.12710552       0.42668480       0.00000000 NULL
P        0.69181095       2.43681818      15.13918242       0.00000000 NULL
P        3.85748387      -0.03484937      15.04240208       0.00000000 NULL
P        4.07327093       2.15233690       5.21530114       0.00000000 NULL
P        0.47602389      -0.31933065       5.11852080       0.00000000 NULL
P        3.80844328       4.39656890       3.37587672       0.00000000 NULL
P        0.74085154       1.92490135       3.27909638       0.00000000 NULL
P        0.40283690       1.89971174       7.25681132       0.00000000 NULL
P        4.14645792      -0.57195581       7.16003098       0.00000000 NULL
14
Lattice="4.525777023637238 0.0 0.0 0.0 4.945179288344881 0.20261145557767946 0.0 -1.8160419691399357 15.784325224318966" Properties=species:S:1:pos:R:3:initial_magmoms:R:1:castep_labels:S:1 n_minim_iter=20 pbc="T T T"
P        2.12026855       2.62810657      13.57997063       0.00000000 NULL
P        2.40550847       0.15551693      13.47866490       0.00000000 NULL
P        3.38472830       1.44199304       2.32704536       0.00000000 NULL
P        1.14104873       3.91458269       2.42835109       0.00000000 NULL
P        2.18853890       2.60150512       0.53270332       0.00000000 NULL
P        2.33723812       0.12891548       0.43139759       0.00000000 NULL
P        0.68903729       2.45479345      15.19544357       0.00000000 NULL
P        3.83673974      -0.01779620      15.09413784       0.00000000 NULL
P        4.05325245       2.15864873       5.23895764       0.00000000 NULL
P        0.47252458      -0.31394091       5.13765191       0.00000000 NULL
P        3.78625303       4.40162854       3.40029633       0.00000000 NULL
P        0.73952399       1.92903889       3.29899060       0.00000000 NULL
P        0.40038808       1.90930702       7.28302451       0.00000000 NULL
P        4.12538895      -0.56328263       7.18171878       0.00000000 NULL
14
Lattice="4.488012003736721 0.0 0.0 0.0 4.944633985991452 0.21861699153139316 0.0 -1.7827362365970632 15.885883574800548" Properties=species:S:1:pos:R:3:initial_magmoms:R:1:castep_labels:S:1 n_minim_iter=21 pbc="T T T"
P        2.10199050       2.65559416      13.67608940       0.00000000 NULL
P        2.38602150       0.18327717      13.56678091       0.00000000 NULL
P        3.35526282       1.44624061       2.34224273       0.00000000 NULL
P        1.13274918       3.91855760       2.45155123       0.00000000 NULL
P        2.16824612       2.60439661       0.54948419       0.00000000 NULL
P        2.31976588       0.13207962       0.44017570       0.00000000 NULL
P        0.68478424       2.48498242      15.30245992       0.00000000 NULL
P        3.80322776       0.01266542      15.19315142       0.00000000 NULL
P        4.02120816       2.16825344       5.28336423       0.00000000 NULL
P        0.46680384      -0.30406355       5.17405573       0.00000000 NULL
P        3.75023617       4.40743990       3.44514626       0.00000000 NULL
P        0.73777583       1.93512291       3.33583776       0.00000000 NULL
P        0.39641651       1.92490736       7.33290304       0.00000000 NULL
P        4.09159549      -0.54740963       7.22359454       0.00000000 NULL
14
Lattice="4.443287097306382 0.0 0.0 0.0 4.940107701310135 0.23717130434299122 0.0 -1.742367170411449 16.02127334049172" Properties=species:S:1:pos:R:3:initial_magmoms:R:1:castep_labels:S:1 n_minim_iter=22 pbc="T T T"
P        2.08029965       2.68557727      13.80178703       0.00000000 NULL
P        2.36298745       0.21552342      13.68320138       0.00000000 NULL
P        3.32041839       1.44981374       2.36183639       0.00000000 NULL
P        1.12286871       3.91986759       2.48042204       0.00000000 NULL
P        2.14434621       2.60602396       0.57036681       0.00000000 NULL
P        2.29894089       0.13597011       0.45178116       0.00000000 NULL
P        0.68007909       2.51824753      15.44303541       0.00000000 NULL
P        3.76320801       0.04819368      15.32444976       0.00000000 NULL
P        3.98329472       2.17769256       5.34093897       0.00000000 NULL
P        0.45999238      -0.29236129       5.22235332       0.00000000 NULL
P        3.70732668       4.41104583       3.50168102       0.00000000 NULL
P        0.73596041       1.94099198       3.38309537       0.00000000 NULL
P        0.39170559       1.94162333       7.39804224       0.00000000 NULL
P        4.05158150      -0.52843052       7.27945659       0.00000000 NULL
14
Lattice="4.383253863958871 0.0 0.0 0.0 4.933605126561032 0.2574675266719094 0.0 -1.697507192527679 16.195420138001733" Properties=species:S:1:pos:R:3:initial_magmoms:R:1:castep_labels:S:1 n_minim_iter=23 pbc="T T T"
P        2.05115270       2.71750492      13.96023531       0.00000000 NULL
P        2.33210116       0.25070236      13.83150154       0.00000000 NULL
P        3.27405683       1.45292737       2.38599852       0.00000000 NULL
P        1.10919703       3.91972993       2.51473228       0.00000000 NULL
P        2.11263295       2.60757816       0.59555652       0.00000000 NULL
P        2.27062092       0.14077560       0.46682276       0.00000000 NULL
P        0.67392579       2.55377441      15.62088094       0.00000000 NULL
P        3.70932807       0.08697185      15.49214718       0.00000000 NULL
P        3.93210098       2.18717484       5.41321234       0.00000000 NULL
P        0.45115288      -0.27962772       5.28447857       0.00000000 NULL
P        3.65034620       4.41398576       3.57073330       0.00000000 NULL
P        0.73290767       1.94718320       3.44199954       0.00000000 NULL
P        0.38552032       1.95937628       7.47961974       0.00000000 NULL
P        3.99773355      -0.50742629       7.35088597       0.00000000 NULL
14
Lattice="4.205513769181522 0.0 0.0 0.0 4.930536296619922 0.3203529567122967 0.0 -1.5662310560732586 16.824060136469186" Properties=species:S:1:pos:R:3:initial_magmoms:R:1:castep_labels:S:1 n_minim_iter=24 pbc="T T T"
P        1.96426661       2.82375141      14.52356941       0.00000000 NULL
P        2.24124716       0.35848326      14.36339293       0.00000000 NULL
P        3.13731085       1.46591563       2.47164378       0.00000000 NULL
P        1.06820292       3.93118378       2.63182025       0.00000000 NULL
P        2.01869981       2.62262378       0.67983306       0.00000000 NULL
P        2.18681396       0.15735563       0.51965658       0.00000000 NULL
P        0.65733999       2.67046719      16.25480322       0.00000000 NULL
P        3.54817378       0.20519905      16.09462675       0.00000000 NULL
P        3.78067539       2.22331094       5.66889467       0.00000000 NULL
P        0.42483838      -0.24195721       5.50871819       0.00000000 NULL
P        3.48005401       4.43990103       3.80756638       0.00000000 NULL
P        0.72545976       1.97463288       3.64738990       0.00000000 NULL
P        0.36732501       2.01980925       7.76848853       0.00000000 NULL
P        3.83818876      -0.44545890       7.60831205       0.00000000 NULL
14
Lattice="4.096809000134175 0.0 0.0 0.0 4.860965599962772 0.31410092528515604 0.0 -1.5477082885790485 16.574925999800765" Properties=species:S:1:pos:R:3:initial_magmoms:R:1:castep_labels:S:1 n_minim_iter=25 pbc="T T T"
P        1.91164682       2.78017686      14.30311041       0.00000000 NULL
P        2.18516218       0.34969406      14.14605994       0.00000000 NULL
P        3.05612350       1.44172313       2.42828600       0.00000000 NULL
P        1.04068550       3.87220593       2.58533646       0.00000000 NULL
P        1.96438998       2.58985722       0.67602198       0.00000000 NULL
P        2.13241902       0.15937442       0.51897152       0.00000000 NULL
P        0.64565862       2.62787542      16.00882167       0.00000000 NULL
P        3.45115038       0.19739262      15.85177121       0.00000000 NULL
P        3.68610794       2.18942835       5.59275430       0.00000000 NULL
P        0.41070106      -0.24105445       5.43570384       0.00000000 NULL
P        3.38168427       4.37856297       3.76370557       0.00000000 NULL
P        0.71512473       1.94808017       3.60665511       0.00000000 NULL
P        0.35671804       1.98985785       7.63729000       0.00000000 NULL
P        3.74009096      -0.44062495       7.48023953       0.00000000 NULL
14
Lattice="4.130165349097584 0.0 0.0 0.0 4.937227345941612 0.3188189973669052 0.0 -1.5724228647839296 16.872323047830115" Properties=species:S:1:pos:R:3:initial_magmoms:R:1:castep_labels:S:1 n_minim_iter=26 pbc="T T T"
P        1.92724750       2.82319180      14.55531341       0.00000000 NULL
P        2.20291785       0.35457813      14.39590392       0.00000000 NULL
P        3.08086786       1.46399658       2.47079754       0.00000000 NULL
P        1.04929748       3.93261025       2.63020704       0.00000000 NULL
P        1.97985789       2.63139394       0.68974848       0.00000000 NULL
P        2.15030746       0.16278027       0.53033898       0.00000000 NULL
P        0.65109964       2.66826474      16.29434393       0.00000000 NULL
P        3.47906571       0.19965106      16.13493443       0.00000000 NULL
P        3.71634092       2.22331492       5.69238139       0.00000000 NULL
P        0.41382443      -0.24529875       5.53297189       0.00000000 NULL
P        3.40712862       4.44736725       3.83374684       0.00000000 NULL
P        0.72303673       1.97875358       3.67433734       0.00000000 NULL
P        0.35986755       2.02102848       7.77388322       0.00000000 NULL
P        3.77029779      -0.44758519       7.61447372       0.00000000 NULL
14
Lattice="4.121517788227796 0.0 0.0 0.0 4.932069270716156 0.3230482807630325 0.0 -1.5613565730905352 16.883326776684054" Properties=species:S:1:pos:R:3:initial_magmoms:R:1:castep_labels:S:1 n_minim_iter=27 pbc="T T T"
P        1.92302048       2.82806775      14.56700676       0.00000000 NULL
P        2.19849731       0.36203311      14.40548262       0.00000000 NULL
P        3.07439750       1.46314110       2.47297702       0.00000000 NULL
P        1.04712029       3.92917573       2.63450116       0.00000000 NULL
P        1.97537667       2.62975051       0.69353195       0.00000000 NULL
P        2.14614112       0.16371587       0.53200781       0.00000000 NULL
P        0.65048640       2.67412672      16.30786000       0.00000000 NULL
P        3.47103139       0.20809208      16.14633586       0.00000000 NULL
P        3.70899528       2.22385540       5.69933031       0.00000000 NULL
P        0.41252250      -0.24217923       5.53780617       0.00000000 NULL
P        3.39833889       4.44513102       3.84243769       0.00000000 NULL
P        0.72317889       1.97909638       3.68091355       0.00000000 NULL
P        0.35901047       2.02322010       7.77920468       0.00000000 NULL
P        3.76250731      -0.44281453       7.61768054       0.00000000 NULL
14
Lattice="4.1105553873893665 0.0 0.0 0.0 4.930898567556566 0.32786776721803895 0.0 -1.550872959485488 16.913615630633828" Properties=species:S:1:pos:R:3:initial_magmoms:R:1:castep_labels:S:1 n_minim_iter=28 pbc="T T T"
P        1.91763358       2.83573924      14.59490824       0.00000000 NULL
P        2.19292181       0.37028995      14.43097435       0.00000000 NULL
P        3.06622157       1.46330570       2.47776113       0.00000000 NULL
P        1.04433381       3.92875499       2.64169502       0.00000000 NULL
P        1.96963768       2.63063223       0.69872039       0.00000000 NULL
P        2.14091771       0.16518294       0.53478651       0.00000000 NULL
P        0.64982379       2.68265159      16.33994478       0.00000000 NULL
P        3.46073159       0.21720231      16.17601090       0.00000000 NULL
P        3.69974869       2.22631939       5.71327777       0.00000000 NULL
P        0.41080670      -0.23912990       5.54934388       0.00000000 NULL
P        3.38686171       4.44680019       3.85679347       0.00000000 NULL
P        0.72369368       1.98135091       3.69285959       0.00000000 NULL
P        0.35793314       2.02737080       7.79277230       0.00000000 NULL
P        3.75262225      -0.43807849       7.62883842       0.00000000 NULL
14
Lattice="4.036014891830558 0.0 0.0 0.0 4.932131730558803 0.3519028850568834 0.0 -1.5017857966854846 17.097706858530543" Properties=species:S:1:pos:R:3:initial_magmoms:R:1:castep_labels:S:1 n_minim_iter=29 pbc="T T T"
P        1.88111677       2.87693440      14.75960621       0.00000000 NULL
P        2.15489812       0.41086853      14.58365477       0.00000000 NULL
P        3.01087613       1.46475564       2.50509573       0.00000000 NULL
P        1.02513876       3.93082150       2.68104717       0.00000000 NULL
P        1.93093035       2.64062118       0.72760185       0.00000000 NULL
P        2.10508454       0.17455531       0.55165040       0.00000000 NULL
P        0.64491622       2.72739197      16.53022270       0.00000000 NULL
P        3.39109867       0.26132610      16.35427126       0.00000000 NULL
P        3.63658670       2.24109770       5.79556628       0.00000000 NULL
P        0.39942819      -0.22496817       5.61961483       0.00000000 NULL
P        3.30971764       4.46219808       3.94014625       0.00000000 NULL
P        0.72629725       1.99613222       3.76419481       0.00000000 NULL
P        0.35071763       2.05051744       7.87121621       0.00000000 NULL
P        3.68529727      -0.41554843       7.69526477       0.00000000 NULL
