24
Lattice="4.91409 0.0 0.0 0.0 8.296559999999998 0.0 0.0 0.0 13.41196" Properties=species:S:1:pos:R:3:initial_magmoms:R:1:castep_labels:S:1 n_minim_iter=1 pbc="T T T"
P        0.88148062       3.43617464       1.05323451       0.00000000 NULL
P        4.03260938       7.58445464      12.35872549       0.00000000 NULL
P        4.03260938       0.71210536       1.05323451       0.00000000 NULL
P        0.88148062       4.86038536      12.35872549       0.00000000 NULL
P        3.73830797       2.65361074       1.72016434       0.00000000 NULL
P        1.17578203       6.80189074      11.69179566       0.00000000 NULL
P        1.17578203       1.49466926       1.72016434       0.00000000 NULL
P        3.73830797       5.64294926      11.69179566       0.00000000 NULL
P        3.72205265       5.38999710       6.98132352       0.00000000 NULL
P        1.19203735       1.24171710       6.43063648       0.00000000 NULL
P        1.19203735       7.05484290       6.98132352       0.00000000 NULL
P        3.72205265       2.90656290       6.43063648       0.00000000 NULL
P        3.92037992       0.96631030       5.76352694       0.00000000 NULL
P        0.99371008       5.11459030       7.64843306       0.00000000 NULL
P        0.99371008       3.18196970       5.76352694       0.00000000 NULL
P        3.92037992       7.33024970       7.64843306       0.00000000 NULL
P        4.49899633       7.18140278       5.65104887       0.00000000 NULL
P        0.41509367       3.03312278       7.76091113       0.00000000 NULL
P        0.41509367       5.26343722       5.65104887       0.00000000 NULL
P        4.49899633       1.11515722       7.76091113       0.00000000 NULL
P        1.56513816       1.60208565      12.85023761       0.00000000 NULL
P        3.34895184       5.75036565       0.56172239       0.00000000 NULL
P        3.34895184       2.54619435      12.85023761       0.00000000 NULL
P        1.56513816       6.69447435       0.56172239       0.00000000 NULL
24
Lattice="4.933152923880436 0.0 0.0 0.0 8.384919326497538 0.0 0.0 0.0 13.445079399344332" Properties=species:S:1:pos:R:3:initial_magmoms:R:1:castep_labels:S:1 n_minim_iter=2 pbc="T T T"
P        0.88488653       3.47289122       1.05585503       0.00000000 NULL
P        4.04826639       7.66535088      12.38922437       0.00000000 NULL
P        4.04826639       0.71956845       1.05585503       0.00000000 NULL
P        0.88488653       4.91202811      12.38922437       0.00000000 NULL
P        3.75269023       2.68212435       1.72448000       0.00000000 NULL
P        1.18046270       6.87458401      11.72059940       0.00000000 NULL
P        1.18046270       1.51033531       1.72448000       0.00000000 NULL
P        3.75269023       5.70279498      11.72059940       0.00000000 NULL
P        3.73619193       5.44713960       6.99863037       0.00000000 NULL
P        1.19696100       1.25467994       6.44644903       0.00000000 NULL
P        1.19696100       7.13023939       6.99863037       0.00000000 NULL
P        3.73619193       2.93777972       6.44644903       0.00000000 NULL
P        3.93548375       0.97667118       5.77744177       0.00000000 NULL
P        0.99766917       5.16913084       7.66763763       0.00000000 NULL
P        0.99766917       3.21578849       5.77744177       0.00000000 NULL
P        3.93548375       7.40824815       7.66763763       0.00000000 NULL
P        4.51628931       7.25788437       5.66469228       0.00000000 NULL
P        0.41686362       3.06542471       7.78038712       0.00000000 NULL
P        0.41686362       5.31949462       5.66469228       0.00000000 NULL
P        4.51628931       1.12703495       7.78038712       0.00000000 NULL
P        1.57096416       1.61909367      12.88199221       0.00000000 NULL
P        3.36218877       5.81155334       0.56308719       0.00000000 NULL
P        3.36218877       2.57336599      12.88199221       0.00000000 NULL
P        1.57096416       6.76582565       0.56308719       0.00000000 NULL
24
Lattice="5.201464546382379 0.0 0.0 0.0 9.692452367539662 0.0 0.0 0.0 13.896007719165109" Properties=species:S:1:pos:R:3:initial_magmoms:R:1:castep_labels:S:1 n_minim_iter=3 pbc="T T T"
P        0.93277382       4.01595289       1.09163265       0.00000000 NULL
P        4.26869072       8.86217907      12.80437506       0.00000000 NULL
P        4.26869072       0.83027330       1.09163265       0.00000000 NULL
P        0.93277382       5.67649948      12.80437506       0.00000000 NULL
P        3.95509809       3.10417752       1.78304582       0.00000000 NULL
P        1.24636646       7.95040371      12.11296190       0.00000000 NULL
P        1.24636646       1.74204866       1.78304582       0.00000000 NULL
P        3.95509809       6.58827484      12.11296190       0.00000000 NULL
P        3.93512450       6.29222339       7.23440144       0.00000000 NULL
P        1.26634005       1.44599721       6.66160628       0.00000000 NULL
P        1.26634005       8.24645516       7.23440144       0.00000000 NULL
P        3.93512450       3.40022897       6.66160628       0.00000000 NULL
P        4.14809813       1.13043949       5.96661071       0.00000000 NULL
P        1.05336641       5.97666568       7.92939701       0.00000000 NULL
P        1.05336641       3.71578669       5.96661071       0.00000000 NULL
P        4.14809813       8.56201287       7.92939701       0.00000000 NULL
P        4.75960125       8.38970917       5.85021212       0.00000000 NULL
P        0.44186329       3.54348298       8.04579560       0.00000000 NULL
P        0.44186329       6.14896938       5.85021212       0.00000000 NULL
P        4.75960125       1.30274320       8.04579560       0.00000000 NULL
P        1.65289713       1.87086161      13.31450607       0.00000000 NULL
P        3.54856742       6.71708779       0.58150165       0.00000000 NULL
P        3.54856742       2.97536457      13.31450607       0.00000000 NULL
P        1.65289713       7.82159076       0.58150165       0.00000000 NULL
24
Lattice="5.140298321196918 0.0 0.0 0.0 9.77011254611696 0.0 0.0 0.0 13.756102441191215" Properties=species:S:1:pos:R:3:initial_magmoms:R:1:castep_labels:S:1 n_minim_iter=4 pbc="T T T"
P        0.92035345       4.04410023       1.08118765       0.00000000 NULL
P        4.21994487       8.92915650      12.67491479       0.00000000 NULL
P        4.21994487       0.84095604       1.08118765       0.00000000 NULL
P        0.92035345       5.72601232      12.67491479       0.00000000 NULL
P        3.90941947       3.12824127       1.76251479       0.00000000 NULL
P        1.23087885       8.01329754      11.99358765       0.00000000 NULL
P        1.23087885       1.75681501       1.76251479       0.00000000 NULL
P        3.90941947       6.64187128      11.99358765       0.00000000 NULL
P        3.88855144       6.33995275       7.16251579       0.00000000 NULL
P        1.25174689       1.45489648       6.59358665       0.00000000 NULL
P        1.25174689       8.31521607       7.16251579       0.00000000 NULL
P        3.88855144       3.43015980       6.59358665       0.00000000 NULL
P        4.10034425       1.14201591       5.90525266       0.00000000 NULL
P        1.03995407       6.02707219       7.85084978       0.00000000 NULL
P        1.03995407       3.74304036       5.90525266       0.00000000 NULL
P        4.10034425       8.62809663       7.85084978       0.00000000 NULL
P        4.70260181       8.45803496       5.78952940       0.00000000 NULL
P        0.43769651       3.57297869       7.96657304       0.00000000 NULL
P        0.43769651       6.19713386       5.78952940       0.00000000 NULL
P        4.70260181       1.31207759       7.96657304       0.00000000 NULL
P        1.63317039       1.88752150      13.18275791       0.00000000 NULL
P        3.50712793       6.77257777       0.57334454       0.00000000 NULL
P        3.50712793       2.99753478      13.18275791       0.00000000 NULL
P        1.63317039       7.88259105       0.57334454       0.00000000 NULL
24
Lattice="5.09712116732145 0.0 0.0 0.0 9.887245330260994 0.0 0.0 0.0 13.623574240545265" Properties=species:S:1:pos:R:3:initial_magmoms:R:1:castep_labels:S:1 n_minim_iter=5 pbc="T T T"
P        0.91026367       4.08529481       1.07172782       0.00000000 NULL
P        4.18685750       9.02891747      12.55184642       0.00000000 NULL
P        4.18685750       0.85832786       1.07172782       0.00000000 NULL
P        0.91026367       5.80195052      12.55184642       0.00000000 NULL
P        3.87778566       3.16450261       1.74143244       0.00000000 NULL
P        1.21933551       8.10812528      11.88214180       0.00000000 NULL
P        1.21933551       1.77912005       1.74143244       0.00000000 NULL
P        3.87778566       6.72274272      11.88214180       0.00000000 NULL
P        3.85495282       6.41089713       7.09554385       0.00000000 NULL
P        1.24216835       1.46727446       6.52803039       0.00000000 NULL
P        1.24216835       8.41997087       7.09554385       0.00000000 NULL
P        3.85495282       3.47634820       6.52803039       0.00000000 NULL
P        4.06756349       1.16027849       5.84544326       0.00000000 NULL
P        1.02955768       6.10390116       7.77813098       0.00000000 NULL
P        1.02955768       3.78334417       5.84544326       0.00000000 NULL
P        4.06756349       8.72696684       7.77813098       0.00000000 NULL
P        4.66100158       8.56165776       5.72966856       0.00000000 NULL
P        0.43611959       3.61803509       7.89390568       0.00000000 NULL
P        0.43611959       6.26921024       5.72966856       0.00000000 NULL
P        4.66100158       1.32558757       7.89390568       0.00000000 NULL
P        1.61848569       1.91287922      13.05949228       0.00000000 NULL
P        3.47863548       6.85650188       0.56408196       0.00000000 NULL
P        3.47863548       3.03074345      13.05949228       0.00000000 NULL
P        1.61848569       7.97436611       0.56408196       0.00000000 NULL
24
Lattice="5.099085008714092 0.0 0.0 0.0 9.917379369235645 0.0 0.0 0.0 13.580036466780703" Properties=species:S:1:pos:R:3:initial_magmoms:R:1:castep_labels:S:1 n_minim_iter=6 pbc="T T T"
P        0.90796321       4.08885369       1.06941654       0.00000000 NULL
P        4.19112179       9.04754337      12.51061993       0.00000000 NULL
P        4.19112179       0.86983600       1.06941654       0.00000000 NULL
P        0.90796321       5.82852568      12.51061993       0.00000000 NULL
P        3.88054299       3.17279111       1.73153269       0.00000000 NULL
P        1.21854202       8.13148080      11.84850378       0.00000000 NULL
P        1.21854202       1.78589857       1.73153269       0.00000000 NULL
P        3.88054299       6.74458826      11.84850378       0.00000000 NULL
P        3.85515285       6.42460099       7.07558875       0.00000000 NULL
P        1.24393216       1.46591131       6.50444772       0.00000000 NULL
P        1.24393216       8.45146806       7.07558875       0.00000000 NULL
P        3.85515285       3.49277838       6.50444772       0.00000000 NULL
P        4.07102993       1.16917366       5.82276286       0.00000000 NULL
P        1.02805508       6.12786334       7.75727361       0.00000000 NULL
P        1.02805508       3.78951603       5.82276286       0.00000000 NULL
P        4.07102993       8.74820571       7.75727361       0.00000000 NULL
P        4.66015354       8.59056935       5.70567190       0.00000000 NULL
P        0.43893147       3.63187967       7.87436456       0.00000000 NULL
P        0.43893147       6.28549970       5.70567190       0.00000000 NULL
P        4.66015354       1.32681001       7.87436456       0.00000000 NULL
P        1.61759952       1.92170581      13.02176607       0.00000000 NULL
P        3.48148549       6.88039549       0.55827040       0.00000000 NULL
P        3.48148549       3.03698388      13.02176607       0.00000000 NULL
P        1.61759952       7.99567356       0.55827040       0.00000000 NULL
24
Lattice="5.102226152841331 0.0 0.0 0.0 9.888733850779431 0.0 0.0 0.0 13.5023324842854" Properties=species:S:1:pos:R:3:initial_magmoms:R:1:castep_labels:S:1 n_minim_iter=7 pbc="T T T"
P        0.90198731       4.05491673       1.06599651       0.00000000 NULL
P        4.20023884       8.99928365      12.43633597       0.00000000 NULL
P        4.20023884       0.88945020       1.06599651       0.00000000 NULL
P        0.90198731       5.83381712      12.43633597       0.00000000 NULL
P        3.88572289       3.16056773       1.71168485       0.00000000 NULL
P        1.21650327       8.10493465      11.79064763       0.00000000 NULL
P        1.21650327       1.78379920       1.71168485       0.00000000 NULL
P        3.88572289       6.72816612      11.79064763       0.00000000 NULL
P        3.85509013       6.39213032       7.04159142       0.00000000 NULL
P        1.24713602       1.44776340       6.46074106       0.00000000 NULL
P        1.24713602       8.44097045       7.04159142       0.00000000 NULL
P        3.85509013       3.49660353       6.46074106       0.00000000 NULL
P        4.07852491       1.17878930       5.77984483       0.00000000 NULL
P        1.02370124       6.12315623       7.72248765       0.00000000 NULL
P        1.02370124       3.76557762       5.77984483       0.00000000 NULL
P        4.07852491       8.70994455       7.72248765       0.00000000 NULL
P        4.65680058       8.57243069       5.65943107       0.00000000 NULL
P        0.44542558       3.62806377       7.84290142       0.00000000 NULL
P        0.44542558       6.26067009       5.65943107       0.00000000 NULL
P        4.65680058       1.31630316       7.84290142       0.00000000 NULL
P        1.61465096       1.92360195      12.95657922       0.00000000 NULL
P        3.48757520       6.86796887       0.54575326       0.00000000 NULL
P        3.48757520       3.02076498      12.95657922       0.00000000 NULL
P        1.61465096       7.96513190       0.54575326       0.00000000 NULL
24
Lattice="5.168355443772659 0.0 0.0 0.0 10.041888597630036 0.0 0.0 0.0 13.553086931005392" Properties=species:S:1:pos:R:3:initial_magmoms:R:1:castep_labels:S:1 n_minim_iter=8 pbc="T T T"
P        0.90791631       4.09756779       1.07242355       0.00000000 NULL
P        4.26043913       9.11851209      12.48066338       0.00000000 NULL
P        4.26043913       0.92337651       1.07242355       0.00000000 NULL
P        0.90791631       5.94432080      12.48066338       0.00000000 NULL
P        3.93714975       3.20821901       1.71086682       0.00000000 NULL
P        1.23120569       8.22916331      11.84222011       0.00000000 NULL
P        1.23120569       1.81272529       1.71086682       0.00000000 NULL
P        3.93714975       6.83366959      11.84222011       0.00000000 NULL
P        3.90372199       6.47768505       7.07361581       0.00000000 NULL
P        1.26463345       1.45674075       6.47947112       0.00000000 NULL
P        1.26463345       8.58514785       7.07361581       0.00000000 NULL
P        3.90372199       3.56420355       6.47947112       0.00000000 NULL
P        4.13642239       1.20906956       5.79285346       0.00000000 NULL
P        1.03193306       6.23001386       7.76023347       0.00000000 NULL
P        1.03193306       3.81187473       5.79285346       0.00000000 NULL
P        4.13642239       8.83281903       7.76023347       0.00000000 NULL
P        4.71167550       8.71103720       5.66881464       0.00000000 NULL
P        0.45667994       3.69009290       7.88427229       0.00000000 NULL
P        0.45667994       6.35179570       5.66881464       0.00000000 NULL
P        4.71167550       1.33085140       7.88427229       0.00000000 NULL
P        1.63077347       1.96039799      13.01260117       0.00000000 NULL
P        3.53758198       6.98134229       0.54048576       0.00000000 NULL
P        3.53758198       3.06054631      13.01260117       0.00000000 NULL
P        1.63077347       8.08149061       0.54048576       0.00000000 NULL
24
Lattice="5.11136835791036 0.0 0.0 0.0 9.904892237563752 0.0 0.0 0.0 13.455076618416193" Properties=species:S:1:pos:R:3:initial_magmoms:R:1:castep_labels:S:1 n_minim_iter=9 pbc="T T T"
P        0.89661990       4.03740600       1.06508249       0.00000000 NULL
P        4.21474845       8.98985212      12.38999412       0.00000000 NULL
P        4.21474845       0.91504012       1.06508249       0.00000000 NULL
P        0.89661990       5.86748624      12.38999412       0.00000000 NULL
P        3.89417610       3.16389455       1.69698695       0.00000000 NULL
P        1.21719226       8.11634067      11.75808967       0.00000000 NULL
P        1.21719226       1.78855157       1.69698695       0.00000000 NULL
P        3.89417610       6.74099769      11.75808967       0.00000000 NULL
P        3.86125888       6.38756110       7.02323321       0.00000000 NULL
P        1.25010948       1.43511498       6.43184341       0.00000000 NULL
P        1.25010948       8.46977725       7.02323321       0.00000000 NULL
P        3.86125888       3.51733114       6.43184341       0.00000000 NULL
P        4.09214070       1.19466382       5.75009439       0.00000000 NULL
P        1.01922766       6.14710994       7.70498223       0.00000000 NULL
P        1.01922766       3.75778230       5.75009439       0.00000000 NULL
P        4.09214070       8.71022841       7.70498223       0.00000000 NULL
P        4.65913504       8.59294650       5.62652747       0.00000000 NULL
P        0.45223331       3.64050038       7.82854915       0.00000000 NULL
P        0.45223331       6.26439186       5.62652747       0.00000000 NULL
P        4.65913504       1.31194574       7.82854915       0.00000000 NULL
P        1.61226415       1.93527144      12.91997775       0.00000000 NULL
P        3.49910421       6.88771755       0.53509887       0.00000000 NULL
P        3.49910421       3.01717468      12.91997775       0.00000000 NULL
P        1.61226415       7.96962080       0.53509887       0.00000000 NULL
24
Lattice="5.121970506964422 0.0 0.0 0.0 9.924623976007172 0.0 0.0 0.0 13.464028157147947" Properties=species:S:1:pos:R:3:initial_magmoms:R:1:castep_labels:S:1 n_minim_iter=10 pbc="T T T"
P        0.89764877       4.04245500       1.06612423       0.00000000 NULL
P        4.22432173       9.00476698      12.39790393       0.00000000 NULL
P        4.22432173       0.91985699       1.06612423       0.00000000 NULL
P        0.89764877       5.88216898      12.39790393       0.00000000 NULL
P        3.90222879       3.17017273       1.69727456       0.00000000 NULL
P        1.21974171       8.13248471      11.76675359       0.00000000 NULL
P        1.21974171       1.79213926       1.69727456       0.00000000 NULL
P        3.90222879       6.75445125      11.76675359       0.00000000 NULL
P        3.86929119       6.39834094       7.02865843       0.00000000 NULL
P        1.25267931       1.43602895       6.43536973       0.00000000 NULL
P        1.25267931       8.48859502       7.02865843       0.00000000 NULL
P        3.86929119       3.52628303       6.43536973       0.00000000 NULL
P        4.10148524       1.19876367       5.75275010       0.00000000 NULL
P        1.02048527       6.16107565       7.71127806       0.00000000 NULL
P        1.02048527       3.76354832       5.75275010       0.00000000 NULL
P        4.10148524       8.72586031       7.71127806       0.00000000 NULL
P        4.66806994       8.61083184       5.62869406       0.00000000 NULL
P        0.45390056       3.64851985       7.83533409       0.00000000 NULL
P        0.45390056       6.27610412       5.62869406       0.00000000 NULL
P        4.66806994       1.31379213       7.83533409       0.00000000 NULL
P        1.61479536       1.94023413      12.92950713       0.00000000 NULL
P        3.50717515       6.90254612       0.53452103       0.00000000 NULL
P        3.50717515       3.02207786      12.92950713       0.00000000 NULL
P        1.61479536       7.98438984       0.53452103       0.00000000 NULL
24
Lattice="5.12362261875413 0.0 0.0 0.0 9.9252227886488 0.0 0.0 0.0 13.458477680919744" Properties=species:S:1:pos:R:3:initial_magmoms:R:1:castep_labels:S:1 n_minim_iter=11 pbc="T T T"
P        0.89696366       4.03922560       1.06605613       0.00000000 NULL
P        4.22665896       9.00183700      12.39242155       0.00000000 NULL
P        4.22665896       0.92338579       1.06605613       0.00000000 NULL
P        0.89696366       5.88599718      12.39242155       0.00000000 NULL
P        3.90349463       3.17028987       1.69559289       0.00000000 NULL
P        1.22012799       8.13290127      11.76288479       0.00000000 NULL
P        1.22012799       1.79232152       1.69559289       0.00000000 NULL
P        3.90349463       6.75493292      11.76288479       0.00000000 NULL
P        3.87067800       6.39661480       7.02657813       0.00000000 NULL
P        1.25294462       1.43400340       6.43189955       0.00000000 NULL
P        1.25294462       8.49121939       7.02657813       0.00000000 NULL
P        3.87067800       3.52860799       6.43189955       0.00000000 NULL
P        4.10383499       1.20076639       5.74915645       0.00000000 NULL
P        1.01978762       6.16337779       7.70932123       0.00000000 NULL
P        1.01978762       3.76184500       5.74915645       0.00000000 NULL
P        4.10383499       8.72445640       7.70932123       0.00000000 NULL
P        4.66880745       8.61217631       5.62471290       0.00000000 NULL
P        0.45481517       3.64956491       7.83376478       0.00000000 NULL
P        0.45481517       6.27565788       5.62471290       0.00000000 NULL
P        4.66880745       1.31304648       7.83376478       0.00000000 NULL
P        1.61445049       1.94166007      12.92525896       0.00000000 NULL
P        3.50917213       6.90427146       0.53321873       0.00000000 NULL
P        3.50917213       3.02095133      12.92525896       0.00000000 NULL
P        1.61445049       7.98356272       0.53321873       0.00000000 NULL
24
Lattice="5.178757269819829 0.0 0.0 0.0 9.959980517276529 0.0 0.0 0.0 13.282990209074226" Properties=species:S:1:pos:R:3:initial_magmoms:R:1:castep_labels:S:1 n_minim_iter=12 pbc="T T T"
P        0.87486854       3.94059311       1.06383359       0.00000000 NULL
P        4.30388873       8.92058337      12.21915662       0.00000000 NULL
P        4.30388873       1.03939715       1.06383359       0.00000000 NULL
P        0.87486854       6.01938741      12.21915662       0.00000000 NULL
P        3.94477438       3.17989714       1.64328460       0.00000000 NULL
P        1.23398289       8.15988740      11.63970561       0.00000000 NULL
P        1.23398289       1.80009312       1.64328460       0.00000000 NULL
P        3.94477438       6.78008337      11.63970561       0.00000000 NULL
P        3.91790497       6.35056813       6.96072247       0.00000000 NULL
P        1.26085230       1.37057787       6.32226774       0.00000000 NULL
P        1.26085230       8.58940265       6.96072247       0.00000000 NULL
P        3.91790497       3.60941239       6.32226774       0.00000000 NULL
P        4.18212039       1.26725314       5.63573749       0.00000000 NULL
P        0.99663688       6.24724340       7.64725272       0.00000000 NULL
P        0.99663688       3.71273712       5.63573749       0.00000000 NULL
P        4.18212039       8.69272738       7.64725272       0.00000000 NULL
P        4.69431604       8.66865407       5.49921315       0.00000000 NULL
P        0.48444123       3.68866381       7.78377705       0.00000000 NULL
P        0.48444123       6.27131671       5.49921315       0.00000000 NULL
P        4.69431604       1.29132645       7.78377705       0.00000000 NULL
P        1.60302145       1.99146719      12.79057155       0.00000000 NULL
P        3.57573582       6.97145745       0.49241866       0.00000000 NULL
P        3.57573582       2.98852307      12.79057155       0.00000000 NULL
P        1.60302145       7.96851333       0.49241866       0.00000000 NULL
24
Lattice="5.291890142764397 0.0 0.0 0.0 10.689198678798322 0.0 0.0 0.0 13.753403285154727" Properties=species:S:1:pos:R:3:initial_magmoms:R:1:castep_labels:S:1 n_minim_iter=13 pbc="T T T"
P        0.88204350       4.18045912       1.10083977       0.00000000 NULL
P        4.40984664       9.52505846      12.65256352       0.00000000 NULL
P        4.40984664       1.16414022       1.10083977       0.00000000 NULL
P        0.88204350       6.50873956      12.65256352       0.00000000 NULL
P        4.00262035       3.44767942       1.72382665       0.00000000 NULL
P        1.28926979       8.79227876      12.02957664       0.00000000 NULL
P        1.28926979       1.89691992       1.72382665       0.00000000 NULL
P        4.00262035       7.24151925      12.02957664       0.00000000 NULL
P        4.03514398       6.78231329       7.21328574       0.00000000 NULL
P        1.25674617       1.43771395       6.54011755       0.00000000 NULL
P        1.25674617       9.25148473       7.21328574       0.00000000 NULL
P        4.03514398       3.90688539       6.54011755       0.00000000 NULL
P        4.30704290       1.37927759       5.82760103       0.00000000 NULL
P        0.98484724       6.72387692       7.92580225       0.00000000 NULL
P        0.98484724       3.96532175       5.82760103       0.00000000 NULL
P        4.30704290       9.30992109       7.92580225       0.00000000 NULL
P        4.79498744       9.30554161       5.68670340       0.00000000 NULL
P        0.49690270       3.96094227       8.06669988       0.00000000 NULL
P        0.49690270       6.72825641       5.68670340       0.00000000 NULL
P        4.79498744       1.38365707       8.06669988       0.00000000 NULL
P        1.61183278       2.17864508      13.23586419       0.00000000 NULL
P        3.68005736       7.52324442       0.51753910       0.00000000 NULL
P        3.68005736       3.16595426      13.23586419       0.00000000 NULL
P        1.61183278       8.51055360       0.51753910       0.00000000 NULL
24
Lattice="5.11830662701969 0.0 0.0 0.0 10.025154583827115 0.0 0.0 0.0 13.302853224270264" Properties=species:S:1:pos:R:3:initial_magmoms:R:1:castep_labels:S:1 n_minim_iter=14 pbc="T T T"
P        0.85217720       3.91627266       1.06474574       0.00000000 NULL
P        4.26612942       8.92884995      12.23810749       0.00000000 NULL
P        4.26612942       1.09630463       1.06474574       0.00000000 NULL
P        0.85217720       6.10888192      12.23810749       0.00000000 NULL
P        3.87209364       3.23186231       1.66582954       0.00000000 NULL
P        1.24621299       8.24443960      11.63702368       0.00000000 NULL
P        1.24621299       1.78071498       1.66582954       0.00000000 NULL
P        3.87209364       6.79329227      11.63702368       0.00000000 NULL
P        3.90519650       6.36184954       6.97682008       0.00000000 NULL
P        1.21311013       1.34927225       6.32603315       0.00000000 NULL
P        1.21311013       8.67588233       6.97682008       0.00000000 NULL
P        3.90519650       3.66330504       6.32603315       0.00000000 NULL
P        4.16748001       1.29424201       5.63835682       0.00000000 NULL
P        0.95082662       6.30681930       7.66449640       0.00000000 NULL
P        0.95082662       3.71833528       5.63835682       0.00000000 NULL
P        4.16748001       8.73091257       7.66449640       0.00000000 NULL
P        4.63851911       8.72698447       5.50224677       0.00000000 NULL
P        0.47978752       3.71440718       7.80060645       0.00000000 NULL
P        0.47978752       6.31074740       5.50224677       0.00000000 NULL
P        4.63851911       1.29817011       7.80060645       0.00000000 NULL
P        1.55898142       2.04534994      12.80389332       0.00000000 NULL
P        3.55932520       7.05792723       0.49895991       0.00000000 NULL
P        3.55932520       2.96722736      12.80389332       0.00000000 NULL
P        1.55898142       7.97980465       0.49895991       0.00000000 NULL
24
Lattice="5.173311870646699 0.0 0.0 0.0 10.027466968802354 0.0 0.0 0.0 13.288753628190362" Properties=species:S:1:pos:R:3:initial_magmoms:R:1:castep_labels:S:1 n_minim_iter=15 pbc="T T T"
P        0.86144879       3.91627052       1.06346098       0.00000000 NULL
P        4.31186308       8.93000401      12.22529265       0.00000000 NULL
P        4.31186308       1.09746296       1.06346098       0.00000000 NULL
P        0.86144879       6.11119645      12.22529265       0.00000000 NULL
P        3.91289654       3.23323330       1.66447993       0.00000000 NULL
P        1.26041533       8.24696679      11.62427370       0.00000000 NULL
P        1.26041533       1.78050018       1.66447993       0.00000000 NULL
P        3.91289654       6.79423367      11.62427370       0.00000000 NULL
P        3.94735896       6.36258608       6.96954674       0.00000000 NULL
P        1.22595291       1.34885260       6.31920689       0.00000000 NULL
P        1.22595291       8.67861437       6.96954674       0.00000000 NULL
P        3.94735896       3.66488089       6.31920689       0.00000000 NULL
P        4.21261955       1.29448614       5.63202745       0.00000000 NULL
P        0.96069232       6.30821962       7.65672618       0.00000000 NULL
P        0.96069232       3.71924734       5.63202745       0.00000000 NULL
P        4.21261955       8.73298083       7.65672618       0.00000000 NULL
P        4.68819151       8.72904529       5.49609823       0.00000000 NULL
P        0.48512036       3.71531181       7.79265539       0.00000000 NULL
P        0.48512036       6.31215516       5.49609823       0.00000000 NULL
P        4.68819151       1.29842168       7.79265539       0.00000000 NULL
P        1.57475403       2.04677518      12.79038177       0.00000000 NULL
P        3.59855784       7.06050866       0.49837185       0.00000000 NULL
P        3.59855784       2.96695831      12.79038177       0.00000000 NULL
P        1.57475403       7.98069179       0.49837185       0.00000000 NULL
24
Lattice="5.196575735356875 0.0 0.0 0.0 10.001991426279371 0.0 0.0 0.0 13.248685947844983" Properties=species:S:1:pos:R:3:initial_magmoms:R:1:castep_labels:S:1 n_minim_iter=16 pbc="T T T"
P        0.86524462       3.90486857       1.06007991       0.00000000 NULL
P        4.33133112       8.90586428      12.18860603       0.00000000 NULL
P        4.33133112       1.09612715       1.06007991       0.00000000 NULL
P        0.86524462       6.09712286      12.18860603       0.00000000 NULL
P        3.92968856       3.22569912       1.65986175       0.00000000 NULL
P        1.26688718       8.22669483      11.58882419       0.00000000 NULL
P        1.26688718       1.77529660       1.65986175       0.00000000 NULL
P        3.92968856       6.77629231      11.58882419       0.00000000 NULL
P        3.96572021       6.34559233       6.94866879       0.00000000 NULL
P        1.23085552       1.34459662       6.30001716       0.00000000 NULL
P        1.23085552       8.65739481       6.94866879       0.00000000 NULL
P        3.96572021       3.65639910       6.30001716       0.00000000 NULL
P        4.23226643       1.29116364       5.61470729       0.00000000 NULL
P        0.96430930       6.29215935       7.63397866       0.00000000 NULL
P        0.96430930       3.70983208       5.61470729       0.00000000 NULL
P        4.23226643       8.71082779       7.63397866       0.00000000 NULL
P        4.70919649       8.70691526       5.47924520       0.00000000 NULL
P        0.48737924       3.70591955       7.76944075       0.00000000 NULL
P        0.48737924       6.29607188       5.47924520       0.00000000 NULL
P        4.70919649       1.29507617       7.76944075       0.00000000 NULL
P        1.58082837       2.04300340      12.75198054       0.00000000 NULL
P        3.61574737       7.04399912       0.49670541       0.00000000 NULL
P        3.61574737       2.95799231      12.75198054       0.00000000 NULL
P        1.58082837       7.95898802       0.49670541       0.00000000 NULL
24
Lattice="5.2133197272195275 0.0 0.0 0.0 9.997611424795064 0.0 0.0 0.0 13.211985816427047" Properties=species:S:1:pos:R:3:initial_magmoms:R:1:castep_labels:S:1 n_minim_iter=17 pbc="T T T"
P        0.86781148       3.90095665       1.05688457       0.00000000 NULL
P        4.34550825       8.89976236      12.15510124       0.00000000 NULL
P        4.34550825       1.09784906       1.05688457       0.00000000 NULL
P        0.86781148       6.09665477      12.15510124       0.00000000 NULL
P        3.94116027       3.22548277       1.65600044       0.00000000 NULL
P        1.27215946       8.22428849      11.55598537       0.00000000 NULL
P        1.27215946       1.77332294       1.65600044       0.00000000 NULL
P        3.94116027       6.77212865      11.55598537       0.00000000 NULL
P        3.97956299       6.34149108       6.92964949       0.00000000 NULL
P        1.23375674       1.34268536       6.28233632       0.00000000 NULL
P        1.23375674       8.65492606       6.92964949       0.00000000 NULL
P        3.97956299       3.65612035       6.28233632       0.00000000 NULL
P        4.24707626       1.29052755       5.59850008       0.00000000 NULL
P        0.96624346       6.28933326       7.61348574       0.00000000 NULL
P        0.96624346       3.70827816       5.59850008       0.00000000 NULL
P        4.24707626       8.70708388       7.61348574       0.00000000 NULL
P        4.72428340       8.70321539       5.46350782       0.00000000 NULL
P        0.48903632       3.70440968       7.74847800       0.00000000 NULL
P        0.48903632       6.29320175       5.46350782       0.00000000 NULL
P        4.72428340       1.29439603       7.74847800       0.00000000 NULL
P        1.58446296       2.04444126      12.71680305       0.00000000 NULL
P        3.62885677       7.04324697       0.49518276       0.00000000 NULL
P        3.62885677       2.95436445      12.71680305       0.00000000 NULL
P        1.58446296       7.95317017       0.49518276       0.00000000 NULL
