14
Lattice="3.8198000000000008 -6.212843312284042e-16 4.5408951066097065e-17 1.290457734036144 7.007885689761668 -5.353432147153576e-16 0.21342698449253047 0.6388695949325153 11.458589460307113" Properties=species:S:1:pos:R:3:initial_magmoms:R:1:castep_labels:S:1 n_minim_iter=1 pbc="T T T"
P        2.27963299       7.34020640       6.51725151       0.00000000 NULL
P        2.27582234       5.32787018       0.36369448       0.00000000 NULL
P        4.18834259       6.66078581       6.62566466       0.00000000 NULL
P        3.53905745       6.98756918       3.81501475       0.00000000 NULL
P        1.81374764       3.19849116      10.18541756       0.00000000 NULL
P        4.09317835       1.86389775       0.12287389       0.00000000 NULL
P        3.36362078       1.38228819      10.15188171       0.00000000 NULL
P        4.32771735       5.22316136       3.24658392       0.00000000 NULL
P        4.29352699       6.63793647      11.06664497       0.00000000 NULL
P        2.95895707       5.45298595       9.93075041       0.00000000 NULL
P        0.58667321       1.14120385       4.38180357       0.00000000 NULL
P        2.39584904       1.26028136       5.36861156       0.00000000 NULL
P        3.01591787       6.67870041       8.29141012       0.00000000 NULL
P        1.95470926       4.84725102       8.03919511       0.00000000 NULL
14
Lattice="3.8362158864331932 0.0015444346384301132 -0.0010871400213751277 1.298837028504496 7.0244061901117805 -0.0037226280252164947 0.21134132406011452 0.6349280642163603 11.503128721584172" Properties=species:S:1:pos:R:3:initial_magmoms:R:1:castep_labels:S:1 n_minim_iter=2 pbc="T T T"
P        2.29021537       7.35494160       6.53857301       0.00000000 NULL
P        2.28745518       5.34074088       0.36225506       0.00000000 NULL
P        4.20738818       6.67407393       6.64725434       0.00000000 NULL
P        3.55605694       7.00289864       3.82520576       0.00000000 NULL
P        1.82000699       3.20161273      10.22318404       0.00000000 NULL
P        4.11147132       1.86977905       0.12153306       0.00000000 NULL
P        3.37573549       1.38216030      10.18975729       0.00000000 NULL
P        4.34751606       5.23513745       3.25557054       0.00000000 NULL
P        4.31166060       6.64954399      11.10584670       0.00000000 NULL
P        2.97111255       5.46150943       9.96619374       0.00000000 NULL
P        0.58825762       1.14216279       4.39797587       0.00000000 NULL
P        2.40535256       1.26207725       5.38859219       0.00000000 NULL
P        3.02919040       6.69135272       8.32011439       0.00000000 NULL
P        1.96270916       4.85518097       8.06769248       0.00000000 NULL
14
Lattice="4.1224424910306565 0.02930575388982967 -0.02050803338692787 1.4464655659934942 7.304059850121141 -0.07180983239432896 0.17371849036657785 0.5605172455098782 12.2759934946231" Properties=species:S:1:pos:R:3:initial_magmoms:R:1:castep_labels:S:1 n_minim_iter=3 pbc="T T T"
P        2.47526426       7.60047454       6.90489012       0.00000000 NULL
P        2.49125943       5.55883934       0.33462743       0.00000000 NULL
P        4.54028182       6.89547733       7.01844623       0.00000000 NULL
P        3.85354786       7.26065656       3.99795764       0.00000000 NULL
P        1.92858335       3.24793831      10.87709189       0.00000000 NULL
P        4.43088324       1.97081096       0.09680478       0.00000000 NULL
P        3.58608397       1.37476259      10.84591616       0.00000000 NULL
P        4.69342546       5.43704297       3.40857289       0.00000000 NULL
P        4.62794932       6.83988002      11.78289471       0.00000000 NULL
P        3.18306348       5.59962864      10.57863282       0.00000000 NULL
P        0.61567100       1.15580596       4.67779290       0.00000000 NULL
P        2.57080285       1.29010454       5.73470858       0.00000000 NULL
P        3.26099591       6.90073449       8.81494629       0.00000000 NULL
P        2.10223943       4.98449026       8.55979906       0.00000000 NULL
14
Lattice="4.216548511534398 0.04018550750985653 -0.02712370196018004 1.4982179906440913 7.325063897330287 -0.13156717834708692 0.1609506171220494 0.4686501245022694 12.48793847400701" Properties=species:S:1:pos:R:3:initial_magmoms:R:1:castep_labels:S:1 n_minim_iter=4 pbc="T T T"
P        2.53653306       7.57336721       6.96364536       0.00000000 NULL
P        2.56035099       5.57549426       0.29547881       0.00000000 NULL
P        4.65398770       6.86411586       7.08318204       0.00000000 NULL
P        3.95436590       7.25411490       4.00199750       0.00000000 NULL
P        1.96462650       3.17465047      11.04207068       0.00000000 NULL
P        4.53821072       1.98612262       0.07553658       0.00000000 NULL
P        3.65496761       1.30843215      11.01963334       0.00000000 NULL
P        4.80884670       5.43541885       3.42069341       0.00000000 NULL
P        4.73368479       6.77793107      11.93380984       0.00000000 NULL
P        3.25514751       5.53560986      10.71843132       0.00000000 NULL
P        0.62586677       1.12617926       4.74754294       0.00000000 NULL
P        2.62588057       1.26107330       5.82475033       0.00000000 NULL
P        3.33878600       6.85873305       8.91335921       0.00000000 NULL
P        2.15072500       4.93748828       8.66928240       0.00000000 NULL
14
Lattice="4.267257234354242 0.048675886546362436 -0.03248471366448105 1.5309257421746765 7.2729230384499655 -0.1977293621018432 0.14912204562702175 0.35888926986787206 12.576567920703507" Properties=species:S:1:pos:R:3:initial_magmoms:R:1:castep_labels:S:1 n_minim_iter=5 pbc="T T T"
P        2.56851232       7.46290880       6.94588448       0.00000000 NULL
P        2.60064195       5.53573672       0.24686931       0.00000000 NULL
P        4.71834845       6.75413009       7.07217959       0.00000000 NULL
P        4.01121145       7.16955033       3.95887500       0.00000000 NULL
P        1.98092372       3.05580056      11.09662455       0.00000000 NULL
P        4.59921660       1.97968894       0.05023830       0.00000000 NULL
P        3.68760646       1.21689839      11.08479994       0.00000000 NULL
P        4.87279090       5.37413127       3.39472331       0.00000000 NULL
P        4.78934864       6.63387781      11.96148288       0.00000000 NULL
P        3.29347829       5.40312846      10.74818518       0.00000000 NULL
P        0.63122759       1.07992915       4.76973627       0.00000000 NULL
P        2.65480501       1.21263338       5.85714088       0.00000000 NULL
P        3.38010877       6.73742679       8.91668102       0.00000000 NULL
P        2.17780012       4.83276421       8.68951082       0.00000000 NULL
14
Lattice="4.29462735598179 0.0587211893316643 -0.03607534080944872 1.5586016201720108 7.17187190327664 -0.2656657361045958 0.14156029859481212 0.24082960688006075 12.590321593216526" Properties=species:S:1:pos:R:3:initial_magmoms:R:1:castep_labels:S:1 n_minim_iter=6 pbc="T T T"
P        2.59079060       7.29998071       6.88355575       0.00000000 NULL
P        2.62927359       5.45965059       0.19442765       0.00000000 NULL
P        4.76361939       6.59468178       7.01819717       0.00000000 NULL
P        4.04975530       7.03599656       3.88796468       0.00000000 NULL
P        1.99146909       2.90939421      11.08618848       0.00000000 NULL
P        4.63830989       1.96242932       0.02302416       0.00000000 NULL
P        3.70407465       1.11522743      11.08437030       0.00000000 NULL
P        4.91414295       5.27559031       3.34807614       0.00000000 NULL
P        4.82578485       6.44095329      11.91803154       0.00000000 NULL
P        3.32065969       5.22827789      10.71355554       0.00000000 NULL
P        0.63687306       1.02478177       4.76316792       0.00000000 NULL
P        2.67263423       1.15605645       5.85665337       0.00000000 NULL
P        3.40846650       6.56753756       8.86436960       0.00000000 NULL
P        2.20005980       4.69332791       8.65741514       0.00000000 NULL
14
Lattice="4.347929650097695 0.0788436492038822 -0.03682773451891795 1.6135260288491775 7.019220260567968 -0.3541490300733003 0.1456470060292235 0.08315443150770613 12.596811470056142" Properties=species:S:1:pos:R:3:initial_magmoms:R:1:castep_labels:S:1 n_minim_iter=7 pbc="T T T"
P        2.64433230       7.06868120       6.79472796       0.00000000 NULL
P        2.68601343       5.34794217       0.12708281       0.00000000 NULL
P        4.86424978       6.36412373       6.94608542       0.00000000 NULL
P        4.12822149       6.84596596       3.78575938       0.00000000 NULL
P        2.02802358       2.70243102      11.06841638       0.00000000 NULL
P        4.71921121       1.94404502      -0.01357940       0.00000000 NULL
P        3.75113081       0.98748867      11.07316277       0.00000000 NULL
P        5.00298075       5.13097867       3.28770827       0.00000000 NULL
P        4.91469125       6.17342948      11.85871107       0.00000000 NULL
P        3.39063600       4.97943787      10.66264838       0.00000000 NULL
P        0.65704145       0.95183655       4.74955378       0.00000000 NULL
P        2.71704402       1.08815327       5.85880586       0.00000000 NULL
P        3.47721716       6.32981729       8.78837336       0.00000000 NULL
P        2.25826070       4.50048966       8.60972831       0.00000000 NULL
14
Lattice="4.367750019367478 0.08003529556732784 -0.035290060727569905 1.6224082400417301 6.971923303374926 -0.3492078978305696 0.15156644709243058 0.08610235816046442 12.487695061080764" Properties=species:S:1:pos:R:3:initial_magmoms:R:1:castep_labels:S:1 n_minim_iter=8 pbc="T T T"
P        2.64775144       7.02958843       6.73347762       0.00000000 NULL
P        2.69676461       5.31496428       0.12771919       0.00000000 NULL
P        4.89795864       6.30800290       6.89146097       0.00000000 NULL
P        4.13770635       6.80725383       3.73807096       0.00000000 NULL
P        2.03854862       2.67182733      10.98354532       0.00000000 NULL
P        4.75781481       1.93851924      -0.02217152       0.00000000 NULL
P        3.76610040       0.99695762      10.97123841       0.00000000 NULL
P        5.03484500       5.08286599       3.26162442       0.00000000 NULL
P        4.93854498       6.13719598      11.76985702       0.00000000 NULL
P        3.41412027       4.93490363      10.57616009       0.00000000 NULL
P        0.67050202       0.95208519       4.70766175       0.00000000 NULL
P        2.73590940       1.09839185       5.82210717       0.00000000 NULL
P        3.49214838       6.29560437       8.71104222       0.00000000 NULL
P        2.27896634       4.47943172       8.53954069       0.00000000 NULL
14
Lattice="4.454395121140591 0.10515989949986247 -0.034697687435519854 1.6977740167994624 6.90518877770487 -0.39765583788285447 0.16238678079852745 0.001104138460858156 12.402203821337135" Properties=species:S:1:pos:R:3:initial_magmoms:R:1:castep_labels:S:1 n_minim_iter=9 pbc="T T T"
P        2.72104219       6.93268159       6.62544240       0.00000000 NULL
P        2.77641401       5.27538022       0.09132689       0.00000000 NULL
P        5.05316156       6.18762653       6.80461725       0.00000000 NULL
P        4.24370508       6.73728970       3.63047436       0.00000000 NULL
P        2.09524786       2.54905366      10.90561524       0.00000000 NULL
P        4.89526364       1.95506406      -0.04965259       0.00000000 NULL
P        3.83914633       0.95394827      10.87521833       0.00000000 NULL
P        5.17781531       5.00608053       3.20506300       0.00000000 NULL
P        5.07153613       6.01827789      11.66809052       0.00000000 NULL
P        3.52615839       4.79859742      10.47530217       0.00000000 NULL
P        0.70830780       0.92330151       4.66814761       0.00000000 NULL
P        2.80606476       1.08901653       5.79779055       0.00000000 NULL
P        3.59618253       6.19904104       8.60009229       0.00000000 NULL
P        2.36425146       4.39384867       8.45236978       0.00000000 NULL
14
Lattice="4.38883928966513 0.094129182072249 -0.0384848120814079 1.6553898509930234 6.8065877839399045 -0.3977119831573559 0.14551844215390286 -0.006161186843405415 12.1853554991385" Properties=species:S:1:pos:R:3:initial_magmoms:R:1:castep_labels:S:1 n_minim_iter=10 pbc="T T T"
P        2.64861856       6.83097485       6.49799424       0.00000000 NULL
P        2.71997203       5.19878072       0.08346756       0.00000000 NULL
P        4.95911876       6.08058811       6.67671818       0.00000000 NULL
P        4.15519598       6.63581400       3.54980332       0.00000000 NULL
P        2.04405610       2.49555979      10.71469692       0.00000000 NULL
P        4.82591222       1.91968676      -0.05867468       0.00000000 NULL
P        3.76392820       0.93056053      10.67844872       0.00000000 NULL
P        5.08741258       4.91756756       3.14119688       0.00000000 NULL
P        4.96463061       5.91850167      11.45981347       0.00000000 NULL
P        3.45330026       4.71231468      10.28596245       0.00000000 NULL
P        0.69500828       0.90848931       4.58701131       0.00000000 NULL
P        2.75485864       1.06947647       5.69830059       0.00000000 NULL
P        3.51464232       6.10476958       8.43899102       0.00000000 NULL
P        2.31032886       4.32637097       8.29999516       0.00000000 NULL
14
Lattice="4.441803943917394 0.09889072708132157 -0.04054710655498401 1.6820187349242786 6.851944235874561 -0.4030870265337323 0.1430877146430313 -0.009556431121911175 12.275169348551012" Properties=species:S:1:pos:R:3:initial_magmoms:R:1:castep_labels:S:1 n_minim_iter=11 pbc="T T T"
P        2.68208689       6.87703523       6.54161156       0.00000000 NULL
P        2.75637268       5.23529959       0.08330541       0.00000000 NULL
P        5.02430432       6.11920858       6.72290694       0.00000000 NULL
P        4.20890983       6.68226218       3.56864740       0.00000000 NULL
P        2.06723143       2.50798096      10.79277894       0.00000000 NULL
P        4.88860893       1.93738133      -0.06090707       0.00000000 NULL
P        3.80506691       0.93836755      10.75339652       0.00000000 NULL
P        5.15357689       4.94976750       3.16134022       0.00000000 NULL
P        5.02561876       5.95832450      11.54331778       0.00000000 NULL
P        3.49745462       4.73974549      10.35899997       0.00000000 NULL
P        0.70348805       0.91507976       4.62034167       0.00000000 NULL
P        2.78747040       1.07995229       5.74140806       0.00000000 NULL
P        3.55985015       6.14706283       8.49772353       0.00000000 NULL
P        2.33885852       4.35393179       8.35870216       0.00000000 NULL
14
Lattice="4.443987519391913 0.0989703980842556 -0.04070614460067596 1.682902586733212 6.842637074342246 -0.4063812795089564 0.14274596419433902 -0.015701494627523613 12.256312692637918" Properties=species:S:1:pos:R:3:initial_magmoms:R:1:castep_labels:S:1 n_minim_iter=12 pbc="T T T"
P        2.68068773       6.86560884       6.52620282       0.00000000 NULL
P        2.75684907       5.22878607       0.08080807       0.00000000 NULL
P        5.02821618       6.10483791       6.70929888       0.00000000 NULL
P        4.20956074       6.67204832       3.55607301       0.00000000 NULL
P        2.06769221       2.49658753      10.77558633       0.00000000 NULL
P        4.89356114       1.93559874      -0.06249291       0.00000000 NULL
P        3.80522915       0.93310854      10.73500047       0.00000000 NULL
P        5.15679769       4.93911243       3.15392906       0.00000000 NULL
P        5.02685382       5.94474081      11.52409536       0.00000000 NULL
P        3.50025257       4.72547899      10.34044220       0.00000000 NULL
P        0.70507291       0.91244013       4.61314700       0.00000000 NULL
P        2.78857624       1.07755503       5.73390565       0.00000000 NULL
P        3.56084316       6.13601573       8.48032191       0.00000000 NULL
P        2.33985948       4.34434831       8.34329728       0.00000000 NULL
14
Lattice="4.4610925156437435 0.09964504324148997 -0.04165381261100345 1.6899189516860982 6.80925695528675 -0.4208963212046465 0.1409717193053722 -0.041937707005462004 12.186461449862259" Properties=species:S:1:pos:R:3:initial_magmoms:R:1:castep_labels:S:1 n_minim_iter=13 pbc="T T T"
P        2.67891858       6.82353435       6.46571270       0.00000000 NULL
P        2.76364064       5.20603592       0.07033546       0.00000000 NULL
P        5.05404017       6.04899950       6.65684621       0.00000000 NULL
P        4.21977667       6.63490172       3.50469865       0.00000000 NULL
P        2.07302708       2.45017103      10.71131788       0.00000000 NULL
P        4.92356560       1.93001765      -0.06919738       0.00000000 NULL
P        3.81196656       0.91173354      10.66539796       0.00000000 NULL
P        5.17973520       4.89808191       3.12491380       0.00000000 NULL
P        5.04057987       5.89255823      11.45208945       0.00000000 NULL
P        3.51843906       4.66872018      10.26993894       0.00000000 NULL
P        0.71296981       0.90224299       4.58645037       0.00000000 NULL
P        2.79782780       1.06861436       5.70697598       0.00000000 NULL
P        3.57123822       6.09504338       8.41308760       0.00000000 NULL
P        2.34775781       4.30746340       8.28447388       0.00000000 NULL
14
Lattice="4.582820015204393 0.09650416536286274 -0.04982283432511783 1.725280300477741 6.608837668159034 -0.5001111951658189 0.12274245485924098 -0.18529925595200009 11.719901550615207" Properties=species:S:1:pos:R:3:initial_magmoms:R:1:castep_labels:S:1 n_minim_iter=14 pbc="T T T"
P        2.65275674       6.58163920       6.08035562       0.00000000 NULL
P        2.80032772       5.06976861       0.01329671       0.00000000 NULL
P        5.22126028       5.71413185       6.32067583       0.00000000 NULL
P        4.28517507       6.41342302       3.18205751       0.00000000 NULL
P        2.10687963       2.18270409      10.28103296       0.00000000 NULL
P        5.12103846       1.88679949      -0.10231159       0.00000000 NULL
P        3.85813549       0.78761490      10.20538082       0.00000000 NULL
P        5.32712275       4.64827140       2.94473196       0.00000000 NULL
P        5.12358971       5.58853875      10.98094892       0.00000000 NULL
P        3.63476414       4.33370766       9.80885762       0.00000000 NULL
P        0.75999229       0.84737356       4.41026793       0.00000000 NULL
P        2.85399301       1.01459770       5.52395918       0.00000000 NULL
P        3.63141360       5.86097140       7.97812748       0.00000000 NULL
P        2.38531471       4.09283177       7.89918644       0.00000000 NULL
