8
Lattice="5.07154660790074 0.0 0.0 0.0 5.609966474662917 0.0 0.0 0.0 6.150733308990162" Properties=species:S:1:pos:R:3:initial_magmoms:R:1:castep_labels:S:1:forces:R:3 n_minim_iter=1 energy=-38.405996802376 stress="-0.0012747736477036137 -0.0 -0.0 -0.0 -0.0008227627299460565 0.0 -0.0 0.0 0.0016172390623838968" free_energy=-38.405996802376 pbc="T T T"
P        1.29735743       3.75784891       4.93254284       0.00000000 NULL      -0.45841600       0.43111100       0.52367600
P        1.23841587       0.95286567       1.21819047       0.00000000 NULL       0.45841400       0.43111200      -0.52367800
P        3.77418917       4.65710080       1.85717618       0.00000000 NULL       0.45841800      -0.43111100       0.52367900
P        3.83313074       1.85211756       4.29355713       0.00000000 NULL      -0.45841400      -0.43111200      -0.52368000
P        0.36682512       1.18000164       3.12924738       0.00000000 NULL       0.16593600      -0.54329600       0.29146000
P        2.16894819       3.98498487       3.02148593       0.00000000 NULL      -0.16593900      -0.54329800      -0.29145800
P        4.70472149       1.62498160       0.05388073       0.00000000 NULL      -0.16593600       0.54329600       0.29146300
P        2.90259842       4.42996484       6.09685258       0.00000000 NULL       0.16593800       0.54329800      -0.29146100
8
Lattice="5.297545954193687 0.0 0.0 0.0 5.770066579931131 0.0 0.0 0.0 5.819771316858185" Properties=species:S:1:pos:R:3:initial_magmoms:R:1:castep_labels:S:1:forces:R:3 n_minim_iter=2 energy=-38.97390451153 stress="0.03483460552288229 -0.0 -0.0 -0.0 0.002878791741698386 -0.0 -0.0 -0.0 0.027131313639981374" free_energy=-38.97390451153 pbc="T T T"
P        1.26158730       3.95175154       4.76396841       0.00000000 NULL       0.42569500       0.36838300       0.24106200
P        1.38718568       1.06671825       1.05580291       0.00000000 NULL      -0.42569500       0.36838300      -0.24106100
P        4.03595866       4.70334833       1.85408275       0.00000000 NULL      -0.42569500      -0.36838300       0.24106300
P        3.91036027       1.81831504       3.96568856       0.00000000 NULL       0.42569500      -0.36838400      -0.24106400
P        0.41704692       1.10446713       3.01476398       0.00000000 NULL      -0.22716400      -0.45057300      -0.08041200
P        2.23172605       3.98950042       2.80500734       0.00000000 NULL       0.22716400      -0.45057300       0.08041200
P        4.88049903       1.78056616       0.10487832       0.00000000 NULL       0.22716500       0.45057300      -0.08041100
P        3.06581990       4.66559945       5.71489299       0.00000000 NULL      -0.22716400       0.45057300       0.08041100
8
Lattice="5.1811613709505595 0.0 0.0 0.0 5.901501301205837 0.0 0.0 0.0 5.234835899870554" Properties=species:S:1:pos:R:3:initial_magmoms:R:1:castep_labels:S:1:forces:R:3 n_minim_iter=3 energy=-39.580800877113 stress="0.02681152541936495 0.0 0.0 0.0 0.002931709153637077 0.0 0.0 0.0 -0.005064985818174681" free_energy=-39.580800877113 pbc="T T T"
P        1.14780483       4.13397450       4.37367930       0.00000000 NULL       0.08291900       0.14954000       0.23982800
P        1.44277585       1.18322385       0.86115660       0.00000000 NULL      -0.08291700       0.14954000      -0.23982800
P        4.03335654       4.71827745       1.75626135       0.00000000 NULL      -0.08292000      -0.14954100       0.23982800
P        3.73838552       1.76752680       3.47857455       0.00000000 NULL       0.08291700      -0.14954000      -0.23982600
P        0.43821459       1.01358021       2.75920097       0.00000000 NULL      -0.33870700      -0.63484700      -0.09869100
P        2.15236610       3.96433086       2.47563493       0.00000000 NULL       0.33870900      -0.63484600       0.09869000
P        4.74294679       1.93717044       0.14178302       0.00000000 NULL       0.33870700       0.63484700      -0.09869200
P        3.02879527       4.88792109       5.09305288       0.00000000 NULL      -0.33870900       0.63484600       0.09869100
8
Lattice="4.807352938601036 0.0 0.0 0.0 5.948365630025886 0.0 0.0 0.0 5.269751347392236" Properties=species:S:1:pos:R:3:initial_magmoms:R:1:castep_labels:S:1:forces:R:3 n_minim_iter=4 energy=-39.974097245834 stress="0.0009956650546877432 -0.0 -0.0 -0.0 0.005402498229288092 0.0 -0.0 0.0 0.005438929855189423" free_energy=-39.974097245834 pbc="T T T"
P        1.00449789       4.23454163       4.47056091       0.00000000 NULL      -0.41093200      -0.35645300      -0.50567400
P        1.39917858       1.26035881       0.79919043       0.00000000 NULL       0.41093200      -0.35645300       0.50567400
P        3.80285505       4.68800682       1.83568524       0.00000000 NULL       0.41093200       0.35645300      -0.50567300
P        3.40817436       1.71382400       3.43406611       0.00000000 NULL      -0.41093200       0.35645300       0.50567200
P        0.41951298       0.92070364       2.81078679       0.00000000 NULL       0.54059200      -1.04494600      -0.80956600
P        1.98416349       3.89488646       2.45896456       0.00000000 NULL      -0.54059300      -1.04494700       0.80956600
P        4.38783996       2.05347917       0.17591112       0.00000000 NULL      -0.54059200       1.04494700      -0.80956500
P        2.82318945       5.02766199       5.09384023       0.00000000 NULL       0.54059300       1.04494700       0.80956500
8
Lattice="4.470994501354655 0.0 0.0 0.0 5.788760351689608 0.0 0.0 0.0 5.21213817638538" Properties=species:S:1:pos:R:3:initial_magmoms:R:1:castep_labels:S:1:forces:R:3 n_minim_iter=5 energy=-40.548302362372 stress="-0.048585287679193186 -7.413006240283609e-08 -0.0 -7.413006240283609e-08 -0.01877084375133414 -0.0 -0.0 -0.0 -0.014035860145415387" free_energy=-40.548302362372 pbc="T T T"
P        0.85511768       4.17462616       4.47834006       0.00000000 NULL      -0.71478900      -0.77520300      -0.84902500
P        1.38037957       1.28024598       0.73379812       0.00000000 NULL       0.71478500      -0.77520100       0.84902300
P        3.61587682       4.50851437       1.87227097       0.00000000 NULL       0.71478900       0.77520300      -0.84902300
P        3.09061493       1.61413419       3.33986721       0.00000000 NULL      -0.71478400       0.77520200       0.84902200
P        0.42437636       0.73625107       2.78957529       0.00000000 NULL       0.82914200      -1.35081300      -1.05651100
P        1.81112089       3.63063124       2.42256289       0.00000000 NULL      -0.82914700      -1.35081600       1.05651300
P        4.04661814       2.15812911       0.18350620       0.00000000 NULL      -0.82914300       1.35081300      -1.05651100
P        2.65987361       5.05250928       5.02863198       0.00000000 NULL       0.82914600       1.35081600       1.05651200
8
Lattice="4.213738523971411 0.0 0.0 0.0 6.3098837157778895 0.0 0.0 0.0 5.147772157398391" Properties=species:S:1:pos:R:3:initial_magmoms:R:1:castep_labels:S:1:forces:R:3 n_minim_iter=6 energy=-40.986987685728 stress="-0.012482792651063187 -0.0 -0.0 -0.0 0.0010572074641261695 0.0 -0.0 0.0 -0.0010484400214381847" free_energy=-40.986987685728 pbc="T T T"
P        0.75129145       4.59526822       4.46828603       0.00000000 NULL      -0.08105100      -0.97281400      -0.81288300
P        1.35557782       1.44032636       0.67948613       0.00000000 NULL       0.08104900      -0.97281300       0.81288200
P        3.46244708       4.86955736       1.89439995       0.00000000 NULL       0.08105100       0.97281400      -0.81288300
P        2.85816071       1.71461550       3.25337221       0.00000000 NULL      -0.08104900       0.97281300       0.81288200
P        0.41968503       0.62456291       2.75453544       0.00000000 NULL       0.57357100      -0.71355100      -1.19083800
P        1.68718423       3.77950477       2.39323671       0.00000000 NULL      -0.57357300      -0.71355300       1.19083900
P        3.79405349       2.53037895       0.18064936       0.00000000 NULL      -0.57357100       0.71355100      -1.19083700
P        2.52655429       5.68532081       4.96712279       0.00000000 NULL       0.57357400       0.71355300       1.19083800
8
Lattice="4.016143794123619 0.0 0.0 0.0 6.4608992743153735 0.0 0.0 0.0 5.186426314813084" Properties=species:S:1:pos:R:3:initial_magmoms:R:1:castep_labels:S:1:forces:R:3 n_minim_iter=7 energy=-41.346129193361 stress="-0.0006800574419900543 -0.0 -0.0 -0.0 -0.0009684428148444468 -0.0 -0.0 -0.0 0.00836458764531648" free_energy=-41.346129193361 pbc="T T T"
P        0.70844049       4.61393257       4.56655264       0.00000000 NULL       0.20934300      -0.63443300      -0.91867300
P        1.29963140       1.38348293       0.61987368       0.00000000 NULL      -0.20934400      -0.63443200       0.91867300
P        3.30770330       5.07741634       1.97333948       0.00000000 NULL      -0.20934300       0.63443300      -0.91867200
P        2.71651239       1.84696671       3.21308683       0.00000000 NULL       0.20934400       0.63443300       0.91867200
P        0.41207579       0.50790606       2.74713026       0.00000000 NULL       0.46335000       0.18484600      -1.16877000
P        1.59599610       3.73835570       2.43929605       0.00000000 NULL      -0.46335100       0.18484600       1.16877000
P        3.60406800       2.72254357       0.15391711       0.00000000 NULL      -0.46335100      -0.18484600      -1.16876900
P        2.42014769       5.95299321       5.03250921       0.00000000 NULL       0.46335100      -0.18484600       1.16876900
8
Lattice="3.6955559065159127 0.0 0.0 0.0 7.074438261239293 0.0 0.0 0.0 5.400464753274828" Properties=species:S:1:pos:R:3:initial_magmoms:R:1:castep_labels:S:1:forces:R:3 n_minim_iter=8 energy=-41.692273221563 stress="0.022758111539734067 -0.0 0.0 -0.0 0.03562930917042983 -0.0 0.0 -0.0 0.031041508575428957" free_energy=-41.692273221563 pbc="T T T"
P        0.62486556       4.98291014       4.76292649       0.00000000 NULL       0.32609300      -0.28539400      -0.57568500
P        1.22291239       1.44569101       0.63753827       0.00000000 NULL      -0.32609300      -0.28539400       0.57568500
P        3.07069035       5.62874725       2.06269411       0.00000000 NULL      -0.32609300       0.28539400      -0.57568600
P        2.47264351       2.09152812       3.33777064       0.00000000 NULL       0.32609400       0.28539400       0.57568600
P        0.41912790       0.56541640       2.76699876       0.00000000 NULL       0.45042500       0.66491200      -0.62866800
P        1.42865005       4.10263553       2.63346599       0.00000000 NULL      -0.45042600       0.66491100       0.62866800
P        3.27642801       2.97180273       0.06676639       0.00000000 NULL      -0.45042500      -0.66491200      -0.62866900
P        2.26690585       6.50902186       5.33369837       0.00000000 NULL       0.45042500      -0.66491200       0.62866900
8
Lattice="3.7205965534728405 0.0 0.0 0.0 6.710387164717133 0.0 0.0 0.0 5.538299328943559" Properties=species:S:1:pos:R:3:initial_magmoms:R:1:castep_labels:S:1:forces:R:3 n_minim_iter=9 energy=-42.098726126953 stress="0.0014663048305586486 -0.0 -0.0 -0.0 0.008255278115837664 -0.0 -0.0 -0.0 0.013111621857983816" free_energy=-42.098726126953 pbc="T T T"
P        0.63642841       4.69775437       4.85200461       0.00000000 NULL       0.34890900      -0.13268700      -0.37663500
P        1.22386987       1.34256079       0.68629472       0.00000000 NULL      -0.34891100      -0.13268600       0.37663500
P        3.08416814       5.36782638       2.08285495       0.00000000 NULL      -0.34890900       0.13268700      -0.37663500
P        2.49672669       2.01263280       3.45544438       0.00000000 NULL       0.34891100       0.13268700       0.37663500
P        0.41027827       0.58331690       2.73653755       0.00000000 NULL       0.40167400       0.35073700      -0.18106900
P        1.45002001       3.93851048       2.80176177       0.00000000 NULL      -0.40167500       0.35073600       0.18107000
P        3.31031828       2.77187668      -0.03261211       0.00000000 NULL      -0.40167400      -0.35073600      -0.18107000
P        2.27057655       6.12707026       5.57091144       0.00000000 NULL       0.40167600      -0.35073600       0.18107000
8
Lattice="3.758428895455595 0.0 0.0 0.0 6.5654426397060615 0.0 0.0 0.0 5.6770223372624296" Properties=species:S:1:pos:R:3:initial_magmoms:R:1:castep_labels:S:1:forces:R:3 n_minim_iter=10 energy=-42.219143180169 stress="0.009833544848183731 -0.0 -0.0 -0.0 0.011762233985322145 0.0 -0.0 0.0 0.021343217497833522" free_energy=-42.219143180169 pbc="T T T"
P        0.69180750       4.59235072       4.93191733       0.00000000 NULL       0.15428300      -0.14994800      -0.15896000
P        1.18740695       1.30962940       0.74510501       0.00000000 NULL      -0.15428300      -0.14994900       0.15896000
P        3.06662140       5.25581324       2.09340616       0.00000000 NULL      -0.15428300       0.14994900      -0.15896000
P        2.57102194       1.97309192       3.58361618       0.00000000 NULL       0.15428300       0.14994800       0.15896000
P        0.44571546       0.59486210       2.80647604       0.00000000 NULL       0.21105200       0.13150700      -0.20302700
P        1.43349899       3.87758342       2.87054630       0.00000000 NULL      -0.21105300       0.13150800       0.20302600
P        3.31271344       2.68785922      -0.03203513       0.00000000 NULL      -0.21105300      -0.13150800      -0.20302700
P        2.32492991       5.97058054       5.70905747       0.00000000 NULL       0.21105300      -0.13150700       0.20302700
8
Lattice="3.775070613223823 0.0 0.0 0.0 6.525963002904189 0.0 0.0 0.0 5.622619891518401" Properties=species:S:1:pos:R:3:initial_magmoms:R:1:castep_labels:S:1:forces:R:3 n_minim_iter=11 energy=-42.277020274534 stress="0.006051023359765423 -0.0 0.0 -0.0 0.0029541855795289897 -0.0 0.0 -0.0 0.010723532664617572" free_energy=-42.277020274534 pbc="T T T"
P        0.70593319       4.52237757       4.87798485       0.00000000 NULL       0.15399200      -0.00498100       0.02376400
P        1.18160212       1.25939606       0.74463504       0.00000000 NULL      -0.15399300      -0.00498100      -0.02376500
P        3.06913742       5.26656694       2.06667491       0.00000000 NULL      -0.15399200       0.00498100       0.02376400
P        2.59346850       2.00358544       3.55594498       0.00000000 NULL       0.15399300       0.00498100      -0.02376400
P        0.45612412       0.60621735       2.77869205       0.00000000 NULL       0.13762200       0.06136400      -0.04250700
P        1.43141118       3.86919885       2.84392784       0.00000000 NULL      -0.13762300       0.06136400       0.04250700
P        3.31894649       2.65676415      -0.03261789       0.00000000 NULL      -0.13762200      -0.06136500      -0.04250600
P        2.34365943       5.91974565       5.65523778       0.00000000 NULL       0.13762300      -0.06136400       0.04250700
8
Lattice="3.4779117555021855 0.0 0.0 0.0 7.2779971229456875 0.0 0.0 0.0 5.186820649432043" Properties=species:S:1:pos:R:3:initial_magmoms:R:1:castep_labels:S:1:forces:R:3 n_minim_iter=12 energy=-44.229350952538 stress="0.00898895422606354 0.0 -0.0 0.0 0.034987578816861604 0.0 -0.0 0.0 -0.016068319316741717" free_energy=-44.229350952538 pbc="T T T"
P        0.88312759       4.59094011       4.89861108       0.00000000 NULL      -0.15253700      -0.05024200       0.95352500
P        0.85582829       0.95194155       0.28820957       0.00000000 NULL       0.15253700      -0.05024200      -0.95352500
P        2.59478417       6.32605558       2.30520075       0.00000000 NULL       0.15253700       0.05024100       0.95352400
P        2.62208346       2.68705701       2.88161990       0.00000000 NULL      -0.15253700       0.05024200      -0.95352400
P        0.92619589       0.86295786       2.46916118       0.00000000 NULL      -0.31548300      -0.06814000       0.62717300
P        0.81275998       4.50195642       2.71765947       0.00000000 NULL       0.31548300      -0.06814000      -0.62717300
P        2.55171586       2.77604071      -0.12424914       0.00000000 NULL       0.31548300       0.06814000       0.62717300
P        2.66515177       6.41503927       5.31106979       0.00000000 NULL      -0.31548300       0.06814000      -0.62717300
8
Lattice="3.475737144334196 0.0 0.0 0.0 7.2829182437388855 0.0 0.0 0.0 5.168905768167186" Properties=species:S:1:pos:R:3:initial_magmoms:R:1:castep_labels:S:1:forces:R:3 n_minim_iter=13 energy=-44.247247522983 stress="0.007329004729315873 -0.0 -0.0 -0.0 0.032643896835075695 0.0 -0.0 0.0 -0.01380660831483302" free_energy=-44.247247522983 pbc="T T T"
P        0.89703860       4.57075707       4.90594428       0.00000000 NULL      -0.28144400      -0.01560400       0.82698700
P        0.84082997       0.92929795       0.26296149       0.00000000 NULL       0.28144400      -0.01560300      -0.82698700
P        2.57869854       6.35362030       2.32149139       0.00000000 NULL       0.28144400       0.01560200       0.82698700
P        2.63490718       2.71216117       2.84741438       0.00000000 NULL      -0.28144400       0.01560300      -0.82698700
P        0.94983438       0.87054751       2.45636763       0.00000000 NULL      -0.47425300      -0.07852900       0.52865400
P        0.78803419       4.51200663       2.71253813       0.00000000 NULL       0.47425300      -0.07853000      -0.52865300
P        2.52590277       2.77091161      -0.12808525       0.00000000 NULL       0.47425300       0.07853000       0.52865400
P        2.68770295       6.41237074       5.29699102       0.00000000 NULL      -0.47425300       0.07852900      -0.52865400
8
Lattice="3.5778742361752403 0.0 0.0 0.0 7.050657908219199 0.0 0.0 0.0 5.159237431902211" Properties=species:S:1:pos:R:3:initial_magmoms:R:1:castep_labels:S:1:forces:R:3 n_minim_iter=14 energy=-44.382250550955 stress="0.020036450502839243 -0.0 0.0 -0.0 0.0137156853740464 -0.0 0.0 -0.0 -0.010419304629668901" free_energy=-44.382250550955 pbc="T T T"
P        0.93325433       4.43835406       4.91676599       0.00000000 NULL      -0.31914100      -0.07095700       0.64348800
P        0.85568279       0.91302511       0.24247144       0.00000000 NULL       0.31914100      -0.07095700      -0.64348800
P        2.64461991       6.13763280       2.33714727       0.00000000 NULL       0.31914100       0.07095800       0.64348900
P        2.72219145       2.61230385       2.82209016       0.00000000 NULL      -0.31914100       0.07095700      -0.64348900
P        0.95121633       0.82565341       2.45197517       0.00000000 NULL      -0.36940400       0.00937700       0.44771500
P        0.83772079       4.35098237       2.70726226       0.00000000 NULL       0.36940400       0.00937700      -0.44771500
P        2.62665790       2.69967554      -0.12764355       0.00000000 NULL       0.36940400      -0.00937800       0.44771400
P        2.74015345       6.22500450       5.28688098       0.00000000 NULL      -0.36940400      -0.00937800      -0.44771400
8
Lattice="3.5408681295897164 0.0 0.0 0.0 7.033392343385319 0.0 0.0 0.0 5.1608203738109975" Properties=species:S:1:pos:R:3:initial_magmoms:R:1:castep_labels:S:1:forces:R:3 n_minim_iter=15 energy=-44.559775006234 stress="0.006142538120688703 -0.0 0.0 -0.0 0.001666580110264377 -0.0 0.0 -0.0 0.011902042913514124" free_energy=-44.559775006234 pbc="T T T"
P        0.87934295       4.37893848       4.94319551       0.00000000 NULL      -0.01703400       0.01973800       0.34778200
P        0.89109111       0.86224230       0.21762486       0.00000000 NULL       0.01703400       0.01974000      -0.34778200
P        2.66152518       6.17115004       2.36278533       0.00000000 NULL       0.01703400      -0.01974000       0.34778200
P        2.64977702       2.65445387       2.79803505       0.00000000 NULL      -0.01703400      -0.01973800      -0.34778200
P        0.91032769       0.81618694       2.50076754       0.00000000 NULL      -0.14227500      -0.05433000      -0.02615100
P        0.86010638       4.33288311       2.66005283       0.00000000 NULL       0.14227500      -0.05433100       0.02615200
P        2.63054044       2.70050924      -0.07964265       0.00000000 NULL       0.14227500       0.05433100      -0.02615200
P        2.68076175       6.21720541       5.24046302       0.00000000 NULL      -0.14227500       0.05432900       0.02615200
8
Lattice="3.5689721650458677 0.0 0.0 0.0 7.08600222137788 0.0 0.0 0.0 5.044638137194658" Properties=species:S:1:pos:R:3:initial_magmoms:R:1:castep_labels:S:1:forces:R:3 n_minim_iter=16 energy=-44.62308417685 stress="0.014672011711236574 -0.0 -0.0 -0.0 0.008106674077695612 0.0 -0.0 0.0 -0.010931543082521155" free_energy=-44.62308417685 pbc="T T T"
P        0.86958848       4.37733312       4.89045313       0.00000000 NULL       0.10653000       0.00006700       0.30683700
P        0.91489760       0.83433201       0.15418500       0.00000000 NULL      -0.10653000       0.00006800      -0.30683700
P        2.69938368       6.25167021       2.36813407       0.00000000 NULL      -0.10653000      -0.00006800       0.30683700
P        2.65407457       2.70866910       2.67650407       0.00000000 NULL       0.10653000      -0.00006700      -0.30683700
P        0.90653253       0.83103476       2.44186369       0.00000000 NULL      -0.03123300      -0.09993200       0.04674100
P        0.87795356       4.37403587       2.60277445       0.00000000 NULL       0.03123300      -0.09993300      -0.04674000
P        2.66243964       2.71196635      -0.08045538       0.00000000 NULL       0.03123300       0.09993300       0.04674000
P        2.69101861       6.25496746       5.12509352       0.00000000 NULL      -0.03123300       0.09993200      -0.04674000
8
Lattice="3.5520774055350715 0.0 0.0 0.0 7.084456857532166 0.0 0.0 0.0 5.052318024796626" Properties=species:S:1:pos:R:3:initial_magmoms:R:1:castep_labels:S:1:forces:R:3 n_minim_iter=17 energy=-44.656387776988 stress="0.00870274182841352 -0.0 0.0 -0.0 0.0037452637930297213 0.0 0.0 0.0 -0.005076560072947" free_energy=-44.656387776988 pbc="T T T"
P        0.86053419       4.37295096       4.93016367       0.00000000 NULL       0.13043400      -0.04718300       0.15860700
P        0.91550451       0.83072253       0.12215435       0.00000000 NULL      -0.13043400      -0.04718300      -0.15860700
P        2.69154322       6.25373433       2.40400466       0.00000000 NULL      -0.13043400       0.04718300       0.15860700
P        2.63657289       2.71150590       2.64831336       0.00000000 NULL       0.13043400       0.04718300      -0.15860700
P        0.90523818       0.82548937       2.42705873       0.00000000 NULL      -0.03688600      -0.06285600       0.08238300
P        0.87080052       4.36771780       2.62525930       0.00000000 NULL       0.03688600      -0.06285500      -0.08238300
P        2.64683923       2.71673906      -0.09910028       0.00000000 NULL       0.03688600       0.06285500       0.08238300
P        2.68127688       6.25896749       5.15141831       0.00000000 NULL      -0.03688600       0.06285600      -0.08238300
8
Lattice="3.524993691519439 0.0 0.0 0.0 7.094475016780236 0.0 0.0 0.0 5.021830572067276" Properties=species:S:1:pos:R:3:initial_magmoms:R:1:castep_labels:S:1:forces:R:3 n_minim_iter=18 energy=-44.68292001959 stress="-0.004863764187379349 0.0 -0.0 0.0 -0.01187291324265041 -0.0 -0.0 -0.0 -0.006993860709703191" free_energy=-44.68292001959 pbc="T T T"
P        0.85686295       4.32158607       4.95402595       0.00000000 NULL       0.09339100       0.02571800       0.01881100
P        0.90563390       0.77434857       0.06780462       0.00000000 NULL      -0.09339100       0.02571800      -0.01881100
P        2.66813074       6.32012645       2.44311067       0.00000000 NULL      -0.09339100      -0.02571800       0.01881100
P        2.61935980       2.77288894       2.57871991       0.00000000 NULL       0.09339100      -0.02571800      -0.01881100
P        0.90200914       0.80709721       2.41200329       0.00000000 NULL      -0.05653400      -0.04424000       0.10726800
P        0.86048770       4.35433472       2.60982728       0.00000000 NULL       0.05653400      -0.04424000      -0.10726800
P        2.62298455       2.74014030      -0.09891199       0.00000000 NULL       0.05653400       0.04424000       0.10726900
P        2.66450599       6.28737781       5.12074257       0.00000000 NULL      -0.05653400       0.04424000      -0.10726900
8
Lattice="3.500924693493216 0.0 0.0 0.0 7.292198207378476 0.0 0.0 0.0 5.04676285120413" Properties=species:S:1:pos:R:3:initial_magmoms:R:1:castep_labels:S:1:forces:R:3 n_minim_iter=19 energy=-44.723743377996 stress="0.004345820766382176 0.0 -0.0 0.0 0.0014872592071262906 -0.0 -0.0 -0.0 0.013582319810576783" free_energy=-44.723743377996 pbc="T T T"
P        0.86721631       4.41199814       5.00147982       0.00000000 NULL       0.02964300      -0.05971500      -0.06344100
P        0.88324604       0.76589904       0.04528303       0.00000000 NULL      -0.02964400      -0.05971400       0.06344100
P        2.63370838       6.52629917       2.47809840       0.00000000 NULL      -0.02964300       0.05971400      -0.06344100
P        2.61767866       2.88020006       2.56866446       0.00000000 NULL       0.02964300       0.05971500       0.06344100
P        0.88233829       0.78578191       2.45815029       0.00000000 NULL      -0.01869700      -0.10681100       0.01546000
P        0.86812406       4.43188102       2.58861256       0.00000000 NULL       0.01869600      -0.10681300      -0.01546000
P        2.61858640       2.86031719      -0.06523113       0.00000000 NULL       0.01869700       0.10681300       0.01546000
P        2.63280064       6.50641629       5.11199399       0.00000000 NULL      -0.01869600       0.10681200      -0.01546000
8
Lattice="3.461792728562162 0.0 0.0 0.0 7.474636075159972 0.0 0.0 0.0 5.011642140604498" Properties=species:S:1:pos:R:3:initial_magmoms:R:1:castep_labels:S:1:forces:R:3 n_minim_iter=20 energy=-44.750148766442 stress="-0.003543198052521483 0.0 0.0 0.0 -0.009188271035781584 -0.0 0.0 -0.0 0.004829369383547987" free_energy=-44.750148766442 pbc="T T T"
P        0.87020566       4.47318503       4.99222821       0.00000000 NULL      -0.01470500       0.11469100       0.02147500
P        0.86069071       0.73586700       0.01941393       0.00000000 NULL       0.01470400       0.11469100      -0.02147500
P        2.59158707       6.73876908       2.48640714       0.00000000 NULL       0.01470500      -0.11469100       0.02147600
P        2.60110202       3.00145104       2.52523500       0.00000000 NULL      -0.01470400      -0.11469100      -0.02147600
P        0.86099541       0.73940477       2.49034260       0.00000000 NULL       0.00990400       0.10152400      -0.00405000
P        0.86990095       4.47672280       2.52129954       0.00000000 NULL      -0.00990600       0.10152300       0.00405000
P        2.60079732       2.99791327      -0.01547847       0.00000000 NULL      -0.00990400      -0.10152300      -0.00405000
P        2.59189178       6.73523131       5.02712061       0.00000000 NULL       0.00990600      -0.10152400       0.00405000
8
Lattice="3.460319325132204 0.0 0.0 0.0 7.50050969722287 0.0 0.0 0.0 4.994314155589103" Properties=species:S:1:pos:R:3:initial_magmoms:R:1:castep_labels:S:1:forces:R:3 n_minim_iter=21 energy=-44.756951624992 stress="0.000714378229819332 -0.0 0.0 -0.0 -0.0009833115461422466 0.0 0.0 0.0 -0.001791500135298545" free_energy=-44.756951624992 pbc="T T T"
P        0.86672293       4.50035504       4.97450969       0.00000000 NULL      -0.00803000       0.00200000       0.02511600
P        0.86343673       0.75010019       0.01980447       0.00000000 NULL       0.00803100       0.00199800      -0.02511600
P        2.59359639       6.75040950       2.47735261       0.00000000 NULL       0.00803000      -0.00199800       0.02511600
P        2.59688259       3.00015465       2.51696154       0.00000000 NULL      -0.00803100      -0.00200000      -0.02511600
P        0.86404842       0.74693417       2.48250932       0.00000000 NULL      -0.00108000       0.01027100      -0.00533900
P        0.86611124       4.49718902       2.51180484       0.00000000 NULL       0.00108200       0.01027300       0.00533800
P        2.59627091       3.00332068      -0.01464776       0.00000000 NULL       0.00108000      -0.01027300      -0.00533900
P        2.59420808       6.75357553       5.00896192       0.00000000 NULL      -0.00108200      -0.01027100       0.00533900
