11
Lattice="2.8008700000000006 -6.710521252114784e-16 -4.688822791899049e-16 -0.9241598252970635 8.473864520359461 1.1829920203032233e-15 -0.34182134751276005 -0.8023262099302471 9.730054681390202" Properties=species:S:1:pos:R:3:initial_magmoms:R:1:castep_labels:S:1 n_minim_iter=1 pbc="T T T"
P        1.41848987       3.24496448       5.99579397       0.00000000 NULL
P       -0.65183154       7.11594134       7.71841161       0.00000000 NULL
P        0.05121319       3.16784452       8.81306125       0.00000000 NULL
P        0.74111086       6.08760408       8.75634865       0.00000000 NULL
P        1.18692669       2.27815614       1.62993692       0.00000000 NULL
P        1.58573877       1.78350822       4.61050176       0.00000000 NULL
P        1.90875609       0.16843627       8.36600221       0.00000000 NULL
P        0.74459187       6.44685137       6.41007245       0.00000000 NULL
P       -0.07871096       7.32336798       4.23452953       0.00000000 NULL
P        1.93231725       4.44427066       7.52169033       0.00000000 NULL
P        0.68675514       4.77509166       4.91186101       0.00000000 NULL
11
Lattice="2.8058164953685676 -0.00045199192075218397 0.00018981640280146234 -0.9271594184936031 8.492463896787587 0.0034478977442336895 -0.34163613676358906 -0.7999870226957815 9.747847852035502" Properties=species:S:1:pos:R:3:initial_magmoms:R:1:castep_labels:S:1 n_minim_iter=2 pbc="T T T"
P        1.42084061       3.25404750       6.00842375       0.00000000 NULL
P       -0.65349819       7.13516566       7.73555051       0.00000000 NULL
P        0.05148611       3.17824439       8.83098002       0.00000000 NULL
P        0.74205074       6.10404593       8.77578704       0.00000000 NULL
P        1.18876956       2.28360052       1.63407515       0.00000000 NULL
P        1.58854792       1.78885046       4.61974103       0.00000000 NULL
P        1.91255680       0.17225016       8.38191630       0.00000000 NULL
P        0.74529503       6.46335501       6.42422992       0.00000000 NULL
P       -0.07968247       7.34107339       4.24555876       0.00000000 NULL
P        1.93548272       4.45682387       7.53788788       0.00000000 NULL
P        0.68744655       4.78759125       4.92274906       0.00000000 NULL
11
Lattice="2.9245597816174307 -0.011024701790966833 0.004752027460593367 -0.998326407939105 8.947335422167034 0.09221885665671138 -0.3372502369590495 -0.7377756662672946 10.181971779158765" Properties=species:S:1:pos:R:3:initial_magmoms:R:1:castep_labels:S:1 n_minim_iter=3 pbc="T T T"
P        1.47755568       3.47938844       6.31840240       0.00000000 NULL
P       -0.69268332       7.60991843       8.15798354       0.00000000 NULL
P        0.05850741       3.43722032       9.27032890       0.00000000 NULL
P        0.76532557       6.51077576       9.25417209       0.00000000 NULL
P        1.23324071       2.41787364       1.73642630       0.00000000 NULL
P        1.65614879       1.92202587       4.84611889       0.00000000 NULL
P        2.00369098       0.27042529       8.77070709       0.00000000 NULL
P        0.76276986       6.87036548       6.77281407       0.00000000 NULL
P       -0.10213995       7.77637687       4.51904641       0.00000000 NULL
P        2.01184405       4.76817535       7.93605255       0.00000000 NULL
P        0.70440726       5.09614546       5.19100427       0.00000000 NULL
11
Lattice="2.917743967433517 -0.006432993662469522 0.0035921522092590727 -0.9821855609010867 9.098134143766037 0.1860419924598138 -0.34176308711281556 -0.6454651753210222 10.340853510591577" Properties=species:S:1:pos:R:3:initial_magmoms:R:1:castep_labels:S:1 n_minim_iter=4 pbc="T T T"
P        1.47622956       3.60228635       6.45424691       0.00000000 NULL
P       -0.68077246       7.83293871       8.36859522       0.00000000 NULL
P        0.06159122       3.59146533       9.45799180       0.00000000 NULL
P        0.77071743       6.71283712       9.48123425       0.00000000 NULL
P        1.23344339       2.47876786       1.79094986       0.00000000 NULL
P        1.65299398       2.00561017       4.94186168       0.00000000 NULL
P        1.99422251       0.37109289       8.91652261       0.00000000 NULL
P        0.76789781       7.05631367       6.94149296       0.00000000 NULL
P       -0.08951084       7.95324465       4.67706652       0.00000000 NULL
P        2.00969011       4.93231646       8.11932147       0.00000000 NULL
P        0.70720649       5.23979478       5.32417117       0.00000000 NULL
11
Lattice="2.8689548559021105 0.00018718114931382036 0.0011665437404153147 -0.9460584285295647 9.199327852396582 0.2759366583171047 -0.3461316165182116 -0.553759271440422 10.446387148934036" Properties=species:S:1:pos:R:3:initial_magmoms:R:1:castep_labels:S:1 n_minim_iter=5 pbc="T T T"
P        1.45380523       3.70363833       6.55380151       0.00000000 NULL
P       -0.65770797       8.01298372       8.53323801       0.00000000 NULL
P        0.06266404       3.72340603       9.59495803       0.00000000 NULL
P        0.76594881       6.87534647       9.65754812       0.00000000 NULL
P        1.21673867       2.52652520       1.83488198       0.00000000 NULL
P        1.62511602       2.07873147       5.01111389       0.00000000 NULL
P        1.95254699       0.46710675       9.01453887       0.00000000 NULL
P        0.76339470       7.20123770       7.06807924       0.00000000 NULL
P       -0.07180373       8.08502580       4.80957257       0.00000000 NULL
P        1.97712138       5.06733403       8.25824812       0.00000000 NULL
P        0.70093476       5.35436204       5.42739440       0.00000000 NULL
11
Lattice="2.739702021104168 0.015395365847555404 -0.009149144376185171 -0.8573994140235252 9.410350417976368 0.4146199854426193 -0.3705500138301422 -0.4207366850198697 10.687986290191095" Properties=species:S:1:pos:R:3:initial_magmoms:R:1:castep_labels:S:1 n_minim_iter=6 pbc="T T T"
P        1.38438748       3.87724384       6.74933880       0.00000000 NULL
P       -0.61482445       8.34651800       8.84703218       0.00000000 NULL
P        0.05009940       3.94457176       9.87799052       0.00000000 NULL
P        0.73602761       7.16093234      10.00623258       0.00000000 NULL
P        1.16820274       2.61704772       1.91331533       0.00000000 NULL
P        1.54339114       2.20643042       5.15069326       0.00000000 NULL
P        1.83139142       0.61883428       9.22818282       0.00000000 NULL
P        0.73780912       7.46379891       7.29673126       0.00000000 NULL
P       -0.03792911       8.33427346       5.05174356       0.00000000 NULL
P        1.87610883       5.30585598       8.52942374       0.00000000 NULL
P        0.67482305       5.56702480       5.61967463       0.00000000 NULL
11
Lattice="2.6872024394988694 0.04855229268587251 -0.03820841043803254 -0.7397626404125094 9.634936602999087 0.37341453156490173 -0.4745910587546782 -0.5054069101200923 10.959923604422857" Properties=species:S:1:pos:R:3:initial_magmoms:R:1:castep_labels:S:1 n_minim_iter=7 pbc="T T T"
P        1.33364972       3.93310147       6.87331361       0.00000000 NULL
P       -0.59713497       8.51809128       9.01366610       0.00000000 NULL
P       -0.00135836       3.97491259      10.10462241       0.00000000 NULL
P        0.70651234       7.27068696      10.22641672       0.00000000 NULL
P        1.15564357       2.68403515       1.93347352       0.00000000 NULL
P        1.48563448       2.25062690       5.24903748       0.00000000 NULL
P        1.70896133       0.60228152       9.43447261       0.00000000 NULL
P        0.73147579       7.60576593       7.38516001       0.00000000 NULL
P        0.01204613       8.50659525       5.13827738       0.00000000 NULL
P        1.80564007       5.40628677       8.69255960       0.00000000 NULL
P        0.66877131       5.69128545       5.70809956       0.00000000 NULL
11
Lattice="2.648164314519952 0.06769755147494823 -0.054397029529626585 -0.6689589987060809 9.63445994216401 0.34619786973812994 -0.5315493707845544 -0.5456810907409697 10.989037749057374" Properties=species:S:1:pos:R:3:initial_magmoms:R:1:castep_labels:S:1 n_minim_iter=8 pbc="T T T"
P        1.30065140       3.91866957       6.86598400       0.00000000 NULL
P       -0.58366664       8.49394298       9.00760689       0.00000000 NULL
P       -0.03174495       3.94211560      10.11564169       0.00000000 NULL
P        0.68779753       7.24235582      10.22649360       0.00000000 NULL
P        1.14513984       2.68722022       1.92175104       0.00000000 NULL
P        1.44882770       2.24709260       5.24552332       0.00000000 NULL
P        1.63488074       0.58538752       9.44358959       0.00000000 NULL
P        0.72773825       7.58863913       7.36085981       0.00000000 NULL
P        0.04006130       8.49286502       5.12597797       0.00000000 NULL
P        1.76384335       5.39389042       8.68481611       0.00000000 NULL
P        0.66506994       5.68389251       5.69635826       0.00000000 NULL
11
Lattice="2.633371048747429 0.08402115017116062 -0.0674630588659439 -0.6146918225256982 9.661853675116237 0.3189835778227435 -0.5798105813887151 -0.5869758280824626 11.043209839632983" Properties=species:S:1:pos:R:3:initial_magmoms:R:1:castep_labels:S:1 n_minim_iter=9 pbc="T T T"
P        1.28335189       3.91437679       6.87692758       0.00000000 NULL
P       -0.57439918       8.49291461       9.02184374       0.00000000 NULL
P       -0.05516783       3.92017807      10.15045782       0.00000000 NULL
P        0.67895052       7.23399575      10.25042302       0.00000000 NULL
P        1.14445450       2.69673475       1.91587937       0.00000000 NULL
P        1.42912870       2.24752836       5.25575080       0.00000000 NULL
P        1.58656058       0.56837654       9.47701475       0.00000000 NULL
P        0.73124509       7.59248555       7.35706004       0.00000000 NULL
P        0.06438772       8.50339355       5.12446044       0.00000000 NULL
P        1.74322681       5.39503350       8.69880766       0.00000000 NULL
P        0.66777645       5.69116202       5.69881666       0.00000000 NULL
11
Lattice="2.575853713028569 0.1546115289917024 -0.12386857996697676 -0.38214674992482495 9.783951592170935 0.19480515920231267 -0.7889615461036877 -0.7733138262588671 11.284940038418496" Properties=species:S:1:pos:R:3:initial_magmoms:R:1:castep_labels:S:1 n_minim_iter=10 pbc="T T T"
P        1.21192551       3.89386212       6.92645330       0.00000000 NULL
P       -0.53497537       8.48357229       9.08299659       0.00000000 NULL
P       -0.15720383       3.81949216      10.30515075       0.00000000 NULL
P        0.64147273       7.19401742      10.35445788       0.00000000 NULL
P        1.14435993       2.73777952       1.88957554       0.00000000 NULL
P        1.34797139       2.24638495       5.30188045       0.00000000 NULL
P        1.38268942       0.48883343       9.62759767       0.00000000 NULL
P        0.74923524       7.60784128       7.34215538       0.00000000 NULL
P        0.16828716       8.54869561       5.11481695       0.00000000 NULL
P        1.66005018       5.39680843       8.76078695       0.00000000 NULL
P        0.68158299       5.72038941       5.70932795       0.00000000 NULL
11
Lattice="2.5632237353265657 0.17421912213455867 -0.14024019327792783 -0.31865783189240154 9.814524068812066 0.1671600190665026 -0.8499108877843532 -0.8171600104984972 11.346768261206508" Properties=species:S:1:pos:R:3:initial_magmoms:R:1:castep_labels:S:1 n_minim_iter=11 pbc="T T T"
P        1.19253450       3.89278378       6.93930413       0.00000000 NULL
P       -0.52623000       8.48279696       9.10140490       0.00000000 NULL
P       -0.18851880       3.79690838      10.34621252       0.00000000 NULL
P        0.62902736       7.18739937      10.38297673       0.00000000 NULL
P        1.14536443       2.74948283       1.88278531       0.00000000 NULL
P        1.32623943       2.24887132       5.31339865       0.00000000 NULL
P        1.32640438       0.47386688       9.66543396       0.00000000 NULL
P        0.75386129       7.61461699       7.34078283       0.00000000 NULL
P        0.19533907       8.56170036       5.11559488       0.00000000 NULL
P        1.63820205       5.40213603       8.77695452       0.00000000 NULL
P        0.68496409       5.72956476       5.71392631       0.00000000 NULL
11
Lattice="2.4231318625125127 0.43432167770825836 -0.3636723020520792 0.5144908319285441 10.277214679624768 -0.2411620899923473 -1.683511640699181 -1.454341967451095 12.228096219401033" Properties=species:S:1:pos:R:3:initial_magmoms:R:1:castep_labels:S:1 n_minim_iter=12 pbc="T T T"
P        0.93759557       3.87193124       7.12350360       0.00000000 NULL
P       -0.42737683       8.48423210       9.34691465       0.00000000 NULL
P       -0.62826689       3.46719789      10.93055423       0.00000000 NULL
P        0.43962366       7.08752044      10.78700406       0.00000000 NULL
P        1.16711209       2.91175218       1.78688912       0.00000000 NULL
P        1.04432841       2.27073952       5.48004321       0.00000000 NULL
P        0.58357746       0.23769490      10.21117313       0.00000000 NULL
P        0.81560187       7.71844364       7.31812969       0.00000000 NULL
P        0.53561462       8.75779738       5.11847168       0.00000000 NULL
P        1.35354778       5.46608441       9.00732904       0.00000000 NULL
P        0.72706301       5.85967078       5.77478979       0.00000000 NULL
11
Lattice="2.4264884369886435 0.4210453982335621 -0.34115883387500984 0.4732167260669831 9.914466611161552 0.26231708877003224 -1.601907769540201 -0.8313150592038269 11.60985359908385" Properties=species:S:1:pos:R:3:initial_magmoms:R:1:castep_labels:S:1 n_minim_iter=13 pbc="T T T"
P        0.98924329       4.10238275       6.95413539       0.00000000 NULL
P       -0.39381806       8.63121347       9.30861131       0.00000000 NULL
P       -0.56734595       3.87393458      10.59025208       0.00000000 NULL
P        0.47974497       7.34406446      10.64942170       0.00000000 NULL
P        1.17163176       2.90510834       1.83431248       0.00000000 NULL
P        1.07324966       2.47329164       5.33975546       0.00000000 NULL
P        0.65637248       0.76643035       9.77382139       0.00000000 NULL
P        0.84207581       7.79255605       7.29393597       0.00000000 NULL
P        0.52430195       8.68695726       5.34060644       0.00000000 NULL
P        1.37807021       5.70835028       8.88213017       0.00000000 NULL
P        0.73867278       5.93270424       5.79838438       0.00000000 NULL
11
Lattice="2.4504285710405784 0.42136595528970283 -0.3201535374656738 0.4662873958809169 10.258972300650523 -0.00022559312744840297 -1.5319501340724775 -1.1574873693008436 12.092972297079212" Properties=species:S:1:pos:R:3:initial_magmoms:R:1:castep_labels:S:1 n_minim_iter=14 pbc="T T T"
P        1.04813918       4.04788525       7.15096439       0.00000000 NULL
P       -0.33875780       8.70560522       9.43680422       0.00000000 NULL
P       -0.50319947       3.72064890      10.92852814       0.00000000 NULL
P        0.55166924       7.30409870      10.91265448       0.00000000 NULL
P        1.19453719       2.94861950       1.85043722       0.00000000 NULL
P        1.12147607       2.41046054       5.51811291       0.00000000 NULL
P        0.73782315       0.53394611      10.18039248       0.00000000 NULL
P        0.89478865       7.86246806       7.39064119       0.00000000 NULL
P        0.55686425       8.85119104       5.32787495       0.00000000 NULL
P        1.45047620       5.67066190       9.11765127       0.00000000 NULL
P        0.78239088       5.98679819       5.88099187       0.00000000 NULL
11
Lattice="2.424626386343992 0.42719658165412283 -0.3148665414869614 0.49244115538506955 10.163254560175886 0.006372727143619752 -1.5121047170547515 -1.1397387621066468 12.009090641507079" Properties=species:S:1:pos:R:3:initial_magmoms:R:1:castep_labels:S:1 n_minim_iter=15 pbc="T T T"
P        1.05522404       4.02281577       7.10314576       0.00000000 NULL
P       -0.30260428       8.63400326       9.37682728       0.00000000 NULL
P       -0.48075135       3.69413668      10.85632649       0.00000000 NULL
P        0.57312180       7.24522983      10.84548116       0.00000000 NULL
P        1.19156167       2.92738706       1.84032171       0.00000000 NULL
P        1.11959805       2.40143582       5.48553797       0.00000000 NULL
P        0.73864713       0.54825912      10.11491326       0.00000000 NULL
P        0.91307409       7.79435869       7.33697970       0.00000000 NULL
P        0.57927877       8.77307945       5.30314860       0.00000000 NULL
P        1.45410318       5.63226801       9.06619170       0.00000000 NULL
P        0.79489063       5.93873045       5.84587713       0.00000000 NULL
11
Lattice="2.427836301645671 0.43699679855651324 -0.3128069192864821 0.521031998778943 10.167240092976517 0.0032974751929500962 -1.5081487861561231 -1.1443691305977277 12.026643915275349" Properties=species:S:1:pos:R:3:initial_magmoms:R:1:castep_labels:S:1 n_minim_iter=16 pbc="T T T"
P        1.07436013       4.02934162       7.11186303       0.00000000 NULL
P       -0.27155361       8.63770071       9.38607924       0.00000000 NULL
P       -0.46378953       3.69253789      10.87236021       0.00000000 NULL
P        0.60070354       7.24711612      10.86284991       0.00000000 NULL
P        1.20219600       2.93286878       1.84279452       0.00000000 NULL
P        1.13139263       2.40960152       5.49547707       0.00000000 NULL
P        0.74980682       0.55875844      10.13360849       0.00000000 NULL
P        0.94067208       7.79635155       7.33900911       0.00000000 NULL
P        0.60675122       8.77669257       5.31268181       0.00000000 NULL
P        1.47506603       5.64088009       9.08381203       0.00000000 NULL
P        0.81604955       5.94358689       5.85257298       0.00000000 NULL
11
Lattice="2.4255720002009618 0.45095367532285563 -0.3074245447358026 0.5640048105384698 10.170027775188094 0.005072950375577397 -1.4931724333705856 -1.1426945275607283 12.04541577751197" Properties=species:S:1:pos:R:3:initial_magmoms:R:1:castep_labels:S:1 n_minim_iter=17 pbc="T T T"
P        1.10377884       4.04249484       7.12442947       0.00000000 NULL
P       -0.21897838       8.64703829       9.40038281       0.00000000 NULL
P       -0.43208003       3.69601784      10.89308918       0.00000000 NULL
P        0.64595316       7.25464012      10.88821165       0.00000000 NULL
P        1.21589647       2.94120025       1.84815098       0.00000000 NULL
P        1.14863746       2.42515281       5.51021687       0.00000000 NULL
P        0.76906821       0.58219902      10.15821265       0.00000000 NULL
P        0.98326702       7.80061411       7.34267114       0.00000000 NULL
P        0.64949872       8.78274109       5.33065991       0.00000000 NULL
P        1.50610337       5.65786941       9.11145720       0.00000000 NULL
P        0.84873061       5.95269946       5.86365779       0.00000000 NULL
11
Lattice="2.4124061742686487 0.5057878559745443 -0.2808452795147435 0.7342464659244087 10.217814027057832 0.032448229760483525 -1.4149384689179396 -1.1141206393098195 12.121949801094033" Properties=species:S:1:pos:R:3:initial_magmoms:R:1:castep_labels:S:1 n_minim_iter=18 pbc="T T T"
P        1.22900633       4.12284751       7.18823883       0.00000000 NULL
P        0.00317666       8.73507771       9.47983950       0.00000000 NULL
P       -0.29063116       3.74467137      10.98826084       0.00000000 NULL
P        0.84062518       7.33380031      11.00760721       0.00000000 NULL
P        1.27103365       2.98793202       1.87802522       0.00000000 NULL
P        1.22475632       2.50838425       5.57861919       0.00000000 NULL
P        0.86108733       0.70274305      10.26589174       0.00000000 NULL
P        1.15875352       7.85643041       7.37657682       0.00000000 NULL
P        0.82558221       8.85031400       5.42275598       0.00000000 NULL
P        1.63745078       5.76354883       9.24315154       0.00000000 NULL
P        0.98567841       6.02170560       5.92207993       0.00000000 NULL
11
Lattice="2.421434713309509 0.5405926542517991 -0.23686361798332467 0.8365672920238351 10.302197182915354 0.08243501786069436 -1.2732207089329857 -1.0533849760999943 12.219679247102636" Properties=species:S:1:pos:R:3:initial_magmoms:R:1:castep_labels:S:1 n_minim_iter=19 pbc="T T T"
P        1.37800562       4.21798551       7.28973817       0.00000000 NULL
P        0.21261458       8.87964110       9.61384226       0.00000000 NULL
P       -0.11590330       3.82803869      11.11899047       0.00000000 NULL
P        1.05930147       7.46347330      11.16051386       0.00000000 NULL
P        1.32918674       3.03909124       1.92683292       0.00000000 NULL
P        1.33701842       2.61136430       5.67348056       0.00000000 NULL
P        1.02709644       0.84897324      10.41105172       0.00000000 NULL
P        1.32101063       7.93161846       7.45713876       0.00000000 NULL
P        0.97662989       8.96682587       5.54201751       0.00000000 NULL
P        1.79211339       5.89837486       9.43020696       0.00000000 NULL
P        1.12515251       6.11525448       6.00735606       0.00000000 NULL
11
Lattice="2.3954544165339544 0.5453786901553189 -0.23085880115589671 0.8596194745119091 10.218172479553392 0.09691131265721659 -1.250560658988502 -1.027265589729351 12.145759968922281" Properties=species:S:1:pos:R:3:initial_magmoms:R:1:castep_labels:S:1 n_minim_iter=20 pbc="T T T"
P        1.38391817       4.19948689       7.25249577       0.00000000 NULL
P        0.24827642       8.82857818       9.57531711       0.00000000 NULL
P       -0.09294616       3.81148556      11.06035172       0.00000000 NULL
P        1.08194339       7.42202528      11.10354581       0.00000000 NULL
P        1.32557844       3.02176609       1.92083738       0.00000000 NULL
P        1.33954372       2.61302847       5.64719779       0.00000000 NULL
P        1.03342113       0.87399422      10.35611717       0.00000000 NULL
P        1.33278479       7.86917406       7.41750737       0.00000000 NULL
P        0.99758446       8.90616376       5.52627749       0.00000000 NULL
P        1.79360766       5.87363225       9.39578792       0.00000000 NULL
P        1.13805274       6.07584426       5.97940609       0.00000000 NULL
11
Lattice="2.4127148125954907 0.5529013157674404 -0.23115454777131225 0.8766835816163848 10.275038790079433 0.09854745184700162 -1.2558494450715025 -1.0320362781471348 12.19853237855797" Properties=species:S:1:pos:R:3:initial_magmoms:R:1:castep_labels:S:1 n_minim_iter=21 pbc="T T T"
P        1.40125584       4.22569122       7.28486176       0.00000000 NULL
P        0.26367140       8.88163587       9.61888099       0.00000000 NULL
P       -0.08592675       3.83205985      11.11041072       0.00000000 NULL
P        1.10181933       7.46594958      11.15282745       0.00000000 NULL
P        1.33883795       3.04096199       1.92953615       0.00000000 NULL
P        1.35559664       2.63383216       5.67209323       0.00000000 NULL
P        1.04787093       0.88822599      10.40329520       0.00000000 NULL
P        1.35107796       7.91083636       7.44888368       0.00000000 NULL
P        1.01575753       8.95890161       5.55163311       0.00000000 NULL
P        1.81380507       5.91199026       9.44071461       0.00000000 NULL
P        1.15520962       6.11122542       6.00403884       0.00000000 NULL
11
Lattice="2.4111307085770632 0.5550183286699515 -0.22895265140532556 0.883611159767698 10.27919494830596 0.10300001744634685 -1.2486132942770882 -1.0268074386105608 12.205330350872796" Properties=species:S:1:pos:R:3:initial_magmoms:R:1:castep_labels:S:1 n_minim_iter=22 pbc="T T T"
P        1.40790264       4.23138821       7.29183910       0.00000000 NULL
P        0.27603905       8.89247784       9.63016719       0.00000000 NULL
P       -0.07709364       3.83723112      11.11993750       0.00000000 NULL
P        1.11307480       7.47434628      11.16293294       0.00000000 NULL
P        1.34116886       3.04397917       1.93272942       0.00000000 NULL
P        1.36147450       2.64188572       5.67802785       0.00000000 NULL
P        1.05591893       0.89902141      10.41271555       0.00000000 NULL
P        1.35793893       7.91324274       7.45497723       0.00000000 NULL
P        1.02418221       8.96659720       5.56006312       0.00000000 NULL
P        1.82000538       5.92108358       9.45395717       0.00000000 NULL
P        1.16259632       6.11624135       6.00950812       0.00000000 NULL
11
Lattice="2.4104361865403905 0.5613931751717829 -0.22374686080262787 0.9031270369625339 10.290620468989948 0.11602982819780248 -1.2322700426267714 -1.0119326894049907 12.218925632571377" Properties=species:S:1:pos:R:3:initial_magmoms:R:1:castep_labels:S:1 n_minim_iter=23 pbc="T T T"
P        1.42681375       4.24786952       7.30776578       0.00000000 NULL
P        0.30835745       8.92254909       9.65759440       0.00000000 NULL
P       -0.05476853       3.85235608      11.14146712       0.00000000 NULL
P        1.14345159       7.49845551      11.18624364       0.00000000 NULL
P        1.34907949       3.05267135       1.94050297       0.00000000 NULL
P        1.37852556       2.66430177       5.69149399       0.00000000 NULL
P        1.07780898       0.92899322      10.43344657       0.00000000 NULL
P        1.37735411       7.92125398       7.46918374       0.00000000 NULL
P        1.04742356       8.98806854       5.58132117       0.00000000 NULL
P        1.83834081       5.94686126       9.48550034       0.00000000 NULL
P        1.18324580       6.13059898       6.02231692       0.00000000 NULL
11
Lattice="2.408915421289393 0.5961588763505314 -0.19194341296675133 1.0088103681748595 10.32593469856049 0.19648090122028417 -1.1315600192180157 -0.9161786040378914 12.246664019388783" Properties=species:S:1:pos:R:3:initial_magmoms:R:1:castep_labels:S:1 n_minim_iter=24 pbc="T T T"
P        1.53843777       4.33181906       7.37120788       0.00000000 NULL
P        0.49672605       9.08289821       9.78435658       0.00000000 NULL
P        0.07612076       3.92947164      11.22367657       0.00000000 NULL
P        1.32062279       7.61961876      11.27692927       0.00000000 NULL
P        1.39502283       3.09418933       1.97871291       0.00000000 NULL
P        1.48565809       2.79702945       5.74763519       0.00000000 NULL
P        1.21649781       1.11273019      10.51439624       0.00000000 NULL
P        1.48172526       7.93489116       7.51865747       0.00000000 NULL
P        1.17752598       9.09083635       5.68815762       0.00000000 NULL
P        1.94353816       6.08342699       9.63779117       0.00000000 NULL
P        1.30305927       6.19408269       6.07129800       0.00000000 NULL
