8
Lattice="2.4914128942165172 0.0 0.0 0.0 6.98730501597704 0.0 0.0 0.0 6.98730501597704" Properties=species:S:1:pos:R:3:initial_magmoms:R:1:castep_labels:S:1:forces:R:3 n_minim_iter=1 energy=-41.672223159239 stress="0.0005585478887193946 0.0 -0.0 0.0 0.0001482281194231776 -0.0 -0.0 -0.0 0.0001482281194231776" free_energy=-41.672223159239 pbc="T T T"
P        0.55575832       1.90078567       6.99204489       0.00000000 NULL      -0.08147200      -0.81982900      -0.02435300
P        1.80146477       5.08651935      -0.00473987       0.00000000 NULL      -0.08147200       0.81982900       0.02435300
P        2.42431799       6.99204489       5.08651935       0.00000000 NULL      -0.08147200      -0.02435300       0.81982900
P        1.17861155      -0.00473987       1.90078567       0.00000000 NULL      -0.08147200       0.02435300      -0.81982900
P        0.05703084       3.32957226       1.87983315       0.00000000 NULL       0.08147200       0.38015600      -0.78771700
P        1.30273729       3.65773276       5.10747186       0.00000000 NULL       0.08147200      -0.38015600       0.78771700
P        1.92559051       1.87983315       3.65773276       0.00000000 NULL       0.08147200      -0.78771700      -0.38015600
P        0.67988406       5.10747186       3.32957226       0.00000000 NULL       0.08147200       0.78771700       0.38015600
8
Lattice="2.468397029835535 0.0 0.0 0.0 6.97011641497545 0.0 0.0 0.0 6.97011641497545" Properties=species:S:1:pos:R:3:initial_magmoms:R:1:castep_labels:S:1:forces:R:3 n_minim_iter=2 energy=-42.16742419074 stress="-0.01515973782307146 0.0 -0.0 0.0 -0.009034202082618188 0.0 -0.0 0.0 -0.009034202082618188" free_energy=-42.16742419074 pbc="T T T"
P        0.53959743       1.78439170       6.97152605       0.00000000 NULL      -0.05331800      -0.23481500       0.02818900
P        1.77379595       5.18572471      -0.00140963       0.00000000 NULL      -0.05331800       0.23481500      -0.02818900
P        2.39089521       6.97152605       5.18572471       0.00000000 NULL      -0.05331800       0.02818900       0.23481500
P        1.15669669      -0.00140963       1.78439170       0.00000000 NULL      -0.05331800      -0.02818900      -0.23481500
P        0.06753074       3.37318544       1.76786664       0.00000000 NULL       0.05331800       0.20786100      -0.14803700
P        1.30172925       3.59693097       5.20224978       0.00000000 NULL       0.05331800      -0.20786100       0.14803700
P        1.91882851       1.76786664       3.59693097       0.00000000 NULL       0.05331800      -0.14803700      -0.20786100
P        0.68462999       5.20224978       3.37318544       0.00000000 NULL       0.05331800       0.14803700       0.20786100
8
Lattice="2.4958358363870343 0.0 0.0 0.0 7.017298475289798 0.0 0.0 0.0 7.017298475289798" Properties=species:S:1:pos:R:3:initial_magmoms:R:1:castep_labels:S:1:forces:R:3 n_minim_iter=3 energy=-42.193644002951 stress="0.0028677522583567716 0.0 -0.0 0.0 0.0036004550271609348 -0.0 -0.0 -0.0 0.0036004550271609348" free_energy=-42.193644002951 pbc="T T T"
P        0.54468383       1.78916693       7.01872420       0.00000000 NULL      -0.03646500      -0.18672400       0.04987300
P        1.79260174       5.22813154      -0.00142573       0.00000000 NULL      -0.03646500       0.18672500      -0.04987300
P        2.41656070       7.01872420       5.22813154       0.00000000 NULL      -0.03646500       0.04987300       0.18672400
P        1.16864279      -0.00142573       1.78916693       0.00000000 NULL      -0.03646500      -0.04987300      -0.18672400
P        0.06919321       3.40003501       1.77330919       0.00000000 NULL       0.03646500       0.21127100      -0.13072000
P        1.31711112       3.61726346       5.24398928       0.00000000 NULL       0.03646500      -0.21127100       0.13072000
P        1.94107008       1.77330919       3.61726346       0.00000000 NULL       0.03646500      -0.13072000      -0.21127100
P        0.69315216       5.24398928       3.40003501       0.00000000 NULL       0.03646500       0.13072000       0.21127100
8
Lattice="2.5065420869225665 0.0 0.0 0.0 6.99576526064817 0.0 0.0 0.0 6.99576526064817" Properties=species:S:1:pos:R:3:initial_magmoms:R:1:castep_labels:S:1:forces:R:3 n_minim_iter=4 energy=-42.196952557792 stress="0.00831110671093969 -0.0 0.0 -0.0 -0.0005340257377186369 0.0 0.0 0.0 -0.0005340257377186369" free_energy=-42.196952557792 pbc="T T T"
P        0.54624456       1.78217900       6.99869721       0.00000000 NULL      -0.02339800      -0.18224400       0.03904600
P        1.79951561       5.21358626      -0.00293195       0.00000000 NULL      -0.02339800       0.18224400      -0.03904600
P        2.42615113       6.99869721       5.21358626       0.00000000 NULL      -0.02339800       0.03904600       0.18224400
P        1.17288009      -0.00293195       1.78217900       0.00000000 NULL      -0.02339800      -0.03904600      -0.18224400
P        0.07026578       3.39392855       1.76810893       0.00000000 NULL       0.02339800       0.20513100      -0.12329300
P        1.32353683       3.60183671       5.22765633       0.00000000 NULL       0.02339800      -0.20513100       0.12329300
P        1.95017235       1.76810893       3.60183671       0.00000000 NULL       0.02339800      -0.12329300      -0.20513100
P        0.69690131       5.22765633       3.39392855       0.00000000 NULL       0.02339800       0.12329300       0.20513100
8
Lattice="2.4981023287263047 0.0 0.0 0.0 7.011597353659176 0.0 0.0 0.0 7.011597353659176" Properties=species:S:1:pos:R:3:initial_magmoms:R:1:castep_labels:S:1:forces:R:3 n_minim_iter=5 energy=-42.237958868758 stress="0.0002468795611953946 -0.0 0.0 -0.0 0.001069350025454854 0.0 0.0 0.0 0.001069350025454854" free_energy=-42.237958868758 pbc="T T T"
P        0.53251208       1.76401923       7.04047162       0.00000000 NULL       0.01924300      -0.12350600       0.04191900
P        1.78156325       5.24757812      -0.02887426       0.00000000 NULL       0.01924300       0.12350500      -0.04191900
P        2.40608883       7.04047162       5.24757812       0.00000000 NULL       0.01924300       0.04191900       0.12350500
P        1.15703767      -0.02887426       1.76401923       0.00000000 NULL       0.01924300      -0.04191900      -0.12350500
P        0.08192242       3.47650964       1.78121104       0.00000000 NULL      -0.01924300      -0.03305700      -0.09697800
P        1.33097358       3.53508771       5.23038631       0.00000000 NULL      -0.01924300       0.03305700       0.09697800
P        1.95549916       1.78121104       3.53508771       0.00000000 NULL      -0.01924300      -0.09697800       0.03305700
P        0.70644800       5.23038631       3.47650964       0.00000000 NULL      -0.01924300       0.09697800      -0.03305700
8
Lattice="2.4971303142743353 0.0 0.0 0.0 7.013559110606516 0.0 0.0 0.0 7.013559110606516" Properties=species:S:1:pos:R:3:initial_magmoms:R:1:castep_labels:S:1:forces:R:3 n_minim_iter=6 energy=-42.247784424731 stress="0.00021329625467148572 -0.0 0.0 -0.0 0.000811421286378129 0.0 0.0 0.0 0.000811421286378129" free_energy=-42.247784424731 pbc="T T T"
P        0.54049726       1.73788295       7.07134798       0.00000000 NULL      -0.01091400      -0.04635300      -0.05106300
P        1.78906242       5.27567616      -0.05778887       0.00000000 NULL      -0.01091500       0.04635200       0.05106300
P        2.41334500       7.07134798       5.27567616       0.00000000 NULL      -0.01091500      -0.05106300       0.04635300
P        1.16477984      -0.05778887       1.73788295       0.00000000 NULL      -0.01091500       0.05106300      -0.04635300
P        0.07369816       3.47314770       1.77826970       0.00000000 NULL       0.01091500      -0.00807400      -0.00198400
P        1.32226332       3.54041141       5.23528941       0.00000000 NULL       0.01091500       0.00807400       0.00198400
P        1.94654589       1.77826970       3.54041141       0.00000000 NULL       0.01091400      -0.00198300       0.00807400
P        0.69798074       5.23528941       3.47314770       0.00000000 NULL       0.01091500       0.00198400      -0.00807400
8
Lattice="2.49559667426834 0.0 0.0 0.0 7.005342027192057 0.0 0.0 0.0 7.005342027192057" Properties=species:S:1:pos:R:3:initial_magmoms:R:1:castep_labels:S:1:forces:R:3 n_minim_iter=7 energy=-42.251918587692 stress="-0.002960130184500664 0.0 0.0 0.0 -0.002429800403563036 0.0 0.0 0.0 -0.002429800403563036" free_energy=-42.251918587692 pbc="T T T"
P        0.53853792       1.71238175       7.04924892       0.00000000 NULL      -0.00611500       0.00284600      -0.00650900
P        1.78633626       5.29296028      -0.04390689       0.00000000 NULL      -0.00611500      -0.00284600       0.00650900
P        2.41023542       7.04924892       5.29296028       0.00000000 NULL      -0.00611500      -0.00650900      -0.00284600
P        1.16243709      -0.04390689       1.71238175       0.00000000 NULL      -0.00611500       0.00650900       0.00284600
P        0.07528029       3.46173981       1.78498095       0.00000000 NULL       0.00611500      -0.00196400       0.02936200
P        1.32307863       3.54360222       5.22036107       0.00000000 NULL       0.00611500       0.00196400      -0.02936200
P        1.94697779       1.78498095       3.54360222       0.00000000 NULL       0.00611500       0.02936200       0.00196400
P        0.69917946       5.22036107       3.46173981       0.00000000 NULL       0.00611500      -0.02936200      -0.00196400
8
Lattice="2.5028408378538165 0.0 0.0 0.0 7.022422529490048 0.0 0.0 0.0 7.022422529490048" Properties=species:S:1:pos:R:3:initial_magmoms:R:1:castep_labels:S:1:forces:R:3 n_minim_iter=8 energy=-42.256420203045 stress="-0.0021960497729888303 0.0 0.0 0.0 -0.002785957111012504 0.0 0.0 0.0 -0.002785957111012504" free_energy=-42.256420203045 pbc="T T T"
P        0.53246430       1.68099279       7.06189995       0.00000000 NULL      -0.00434200       0.02443200       0.01715100
P        1.78388472       5.34142974      -0.03947742       0.00000000 NULL      -0.00434200      -0.02443200      -0.01715100
P        2.40959493       7.06189995       5.34142974       0.00000000 NULL      -0.00434200       0.01715100      -0.02443200
P        1.15817451      -0.03947742       1.68099279       0.00000000 NULL      -0.00434200      -0.01715100       0.02443200
P        0.08313568       3.46449168       1.82388149       0.00000000 NULL       0.00434200      -0.00141700       0.01757300
P        1.33455610       3.55793085       5.19854104       0.00000000 NULL       0.00434200       0.00141700      -0.01757300
P        1.96026631       1.82388149       3.55793085       0.00000000 NULL       0.00434200       0.01757300       0.00141700
P        0.70884589       5.19854104       3.46449168       0.00000000 NULL       0.00434200      -0.01757300      -0.00141700
8
Lattice="2.5076222902865037 0.0 0.0 0.0 7.047291298042074 0.0 0.0 0.0 7.047291298042074" Properties=species:S:1:pos:R:3:initial_magmoms:R:1:castep_labels:S:1:forces:R:3 n_minim_iter=9 energy=-42.258667622145 stress="0.00047960757464382943 -0.0 -0.0 -0.0 -2.01542777893188e-05 0.0 -0.0 0.0 -2.01542777893188e-05" free_energy=-42.258667622145 pbc="T T T"
P        0.52120146       1.67570800       7.09158927       0.00000000 NULL      -0.00671400      -0.00064500       0.01799300
P        1.77501260       5.37158330      -0.04429798       0.00000000 NULL      -0.00671400       0.00064500      -0.01799300
P        2.40191818       7.09158927       5.37158330       0.00000000 NULL      -0.00671400       0.01799300       0.00064500
P        1.14810703      -0.04429798       1.67570800       0.00000000 NULL      -0.00671400      -0.01799300      -0.00064500
P        0.09557457       3.47223099       1.84841606       0.00000000 NULL       0.00671400      -0.00141500      -0.00455900
P        1.34938572       3.57506031       5.19887524       0.00000000 NULL       0.00671400       0.00141500       0.00455900
P        1.97629129       1.84841606       3.57506031       0.00000000 NULL       0.00671400      -0.00455900       0.00141500
P        0.72248015       5.19887524       3.47223099       0.00000000 NULL       0.00671400       0.00455900      -0.00141500
8
Lattice="2.497574052229763 0.0 0.0 0.0 7.110421426272792 0.0 0.0 0.0 7.110421426272792" Properties=species:S:1:pos:R:3:initial_magmoms:R:1:castep_labels:S:1:forces:R:3 n_minim_iter=10 energy=-42.267116494518 stress="0.00017169208790989197 -0.0 -0.0 -0.0 0.0014937528423230547 0.0 -0.0 0.0 0.0014937528423230547" free_energy=-42.267116494518 pbc="T T T"
P        0.44468883       1.65483891       7.21427245       0.00000000 NULL      -0.06133500       0.06970800      -0.02431600
P        1.69347585       5.45558252      -0.10385103       0.00000000 NULL      -0.06133500      -0.06970800       0.02431600
P        2.31786937       7.21427245       5.45558252       0.00000000 NULL      -0.06133500      -0.02431600      -0.06970800
P        1.06908234      -0.10385103       1.65483891       0.00000000 NULL      -0.06133500       0.02431600       0.06970800
P        0.16961574       3.47573425       1.90468610       0.00000000 NULL       0.06133500      -0.01417500      -0.09751000
P        1.41840276       3.63468717       5.20573532       0.00000000 NULL       0.06133500       0.01417500       0.09751000
P        2.04279628       1.90468610       3.63468717       0.00000000 NULL       0.06133500      -0.09751000       0.01417500
P        0.79400925       5.20573532       3.47573425       0.00000000 NULL       0.06133500       0.09751000      -0.01417500
8
Lattice="2.4932030738310713 0.0 0.0 0.0 7.135451633387435 0.0 0.0 0.0 7.135451633387435" Properties=species:S:1:pos:R:3:initial_magmoms:R:1:castep_labels:S:1:forces:R:3 n_minim_iter=11 energy=-42.26863343684 stress="-0.00029155363893797117 -0.0 0.0 -0.0 0.001317860260954693 0.0 0.0 0.0 0.001317860260954693" free_energy=-42.26863343684 pbc="T T T"
P        0.41355574       1.64852438       7.26336772       0.00000000 NULL      -0.06896900       0.10656300      -0.04126200
P        1.66015727       5.48692725      -0.12791608       0.00000000 NULL      -0.06896900      -0.10656300       0.04126200
P        2.28345804       7.26336772       5.48692725       0.00000000 NULL      -0.06896900      -0.04126200      -0.10656300
P        1.03685650      -0.12791608       1.64852438       0.00000000 NULL      -0.06896900       0.04126200       0.10656300
P        0.19967374       3.47670249       1.92512127       0.00000000 NULL       0.06896900      -0.01849300      -0.14510700
P        1.44627528       3.65874914       5.21033036       0.00000000 NULL       0.06896900       0.01849300       0.14510700
P        2.06957605       1.92512127       3.65874914       0.00000000 NULL       0.06896900      -0.14510700       0.01849300
P        0.82297451       5.21033036       3.47670249       0.00000000 NULL       0.06896900       0.14510700      -0.01849300
8
Lattice="2.4790369349751598 0.0 0.0 0.0 7.174175533460065 0.0 0.0 0.0 7.174175533460065" Properties=species:S:1:pos:R:3:initial_magmoms:R:1:castep_labels:S:1:forces:R:3 n_minim_iter=12 energy=-42.28476765984 stress="0.00320158472023293 0.0 0.0 0.0 0.007143883692385602 -0.0 0.0 -0.0 0.007143883692385602" free_energy=-42.28476765984 pbc="T T T"
P        0.36585626       1.66554529       7.35948630       0.00000000 NULL      -0.07142400       0.07885500      -0.08350800
P        1.60537473       5.50863024      -0.18531076       0.00000000 NULL      -0.07142400      -0.07885500       0.08350800
P        2.22513396       7.35948630       5.50863024       0.00000000 NULL      -0.07142400      -0.08350800      -0.07885500
P        0.98561550      -0.18531076       1.66554529       0.00000000 NULL      -0.07142400       0.08350800       0.07885500
P        0.24388890       3.48147634       1.92839053       0.00000000 NULL       0.07142400      -0.06258400      -0.10686600
P        1.48340737       3.69269920       5.24578501       0.00000000 NULL       0.07142400       0.06258400       0.10686600
P        2.10316661       1.92839053       3.69269920       0.00000000 NULL       0.07142400      -0.10686600       0.06258400
P        0.86364814       5.24578501       3.48147634       0.00000000 NULL       0.07142400       0.10686600      -0.06258400
8
Lattice="2.453126327067567 0.0 0.0 0.0 7.1873567995563405 0.0 0.0 0.0 7.1873567995563405" Properties=species:S:1:pos:R:3:initial_magmoms:R:1:castep_labels:S:1:forces:R:3 n_minim_iter=13 energy=-42.310039581394 stress="0.003529880691673938 -0.0 -0.0 -0.0 0.00612110603980273 0.0 -0.0 0.0 0.00612110603980273" free_energy=-42.310039581394 pbc="T T T"
P        0.30983919       1.69066291       7.43055945       0.00000000 NULL      -0.03855400       0.04599700      -0.13987200
P        1.53640235       5.49669389      -0.24320265       0.00000000 NULL      -0.03855400      -0.04599700       0.13987200
P        2.14968393       7.43055945       5.49669389       0.00000000 NULL      -0.03855400      -0.13987200      -0.04599700
P        0.92312077      -0.24320265       1.69066291       0.00000000 NULL      -0.03855400       0.13987200       0.04599700
P        0.29353299       3.45144223       1.91242528       0.00000000 NULL       0.03855400      -0.06634100      -0.08345600
P        1.52009616       3.73591457       5.27493152       0.00000000 NULL       0.03855400       0.06634100       0.08345600
P        2.13337774       1.91242528       3.73591457       0.00000000 NULL       0.03855400      -0.08345600       0.06634100
P        0.90681457       5.27493152       3.45144223       0.00000000 NULL       0.03855400       0.08345600      -0.06634100
8
Lattice="2.440723922773355 0.0 0.0 0.0 7.15347328103782 0.0 0.0 0.0 7.15347328103782" Properties=species:S:1:pos:R:3:initial_magmoms:R:1:castep_labels:S:1:forces:R:3 n_minim_iter=14 energy=-42.330888244222 stress="0.004500262527918623 0.0 -0.0 0.0 0.0032410665420703096 -0.0 -0.0 -0.0 0.0032410665420703096" free_energy=-42.330888244222 pbc="T T T"
P        0.31704230       1.71560539       7.38266846       0.00000000 NULL      -0.05041600      -0.03984600      -0.16263200
P        1.53740426       5.43786790      -0.22919517       0.00000000 NULL      -0.05041600       0.03984600       0.16263200
P        2.14758524       7.38266846       5.43786790       0.00000000 NULL      -0.05041600      -0.16263200       0.03984600
P        0.92722328      -0.22919517       1.71560539       0.00000000 NULL      -0.05041600       0.16263200      -0.03984600
P        0.28327938       3.41911674       1.86686806       0.00000000 NULL       0.05041600       0.00251000       0.02640300
P        1.50364134       3.73435654       5.28660522       0.00000000 NULL       0.05041600      -0.00251000      -0.02640300
P        2.11382232       1.86686806       3.73435654       0.00000000 NULL       0.05041600       0.02640300      -0.00251000
P        0.89346036       5.28660522       3.41911674       0.00000000 NULL       0.05041600      -0.02640300       0.00251000
8
Lattice="2.438276269841701 0.0 0.0 0.0 7.13550523959355 0.0 0.0 0.0 7.13550523959355" Properties=species:S:1:pos:R:3:initial_magmoms:R:1:castep_labels:S:1:forces:R:3 n_minim_iter=15 energy=-42.358826779366 stress="-0.0019935418730190183 -0.0 -0.0 -0.0 0.0065472976897140035 -0.0 -0.0 -0.0 0.0065472976897140035" free_energy=-42.358826779366 pbc="T T T"
P        0.31655964       1.71239021       7.28243544       0.00000000 NULL      -0.06039400       0.00060500       0.00384400
P        1.53569777       5.42311503      -0.14693020       0.00000000 NULL      -0.06039400      -0.00060600      -0.00384400
P        2.14526684       7.28243544       5.42311503       0.00000000 NULL      -0.06039400       0.00384400      -0.00060500
P        0.92612870      -0.14693020       1.71239021       0.00000000 NULL      -0.06039400      -0.00384400       0.00060600
P        0.28316002       3.39625088       1.85370544       0.00000000 NULL       0.06039400       0.05541000       0.00122400
P        1.50229815       3.73925436       5.28179980       0.00000000 NULL       0.06039400      -0.05541000      -0.00122400
P        2.11186722       1.85370544       3.73925436       0.00000000 NULL       0.06039400       0.00122400      -0.05541100
P        0.89272908       5.28179980       3.39625088       0.00000000 NULL       0.06039400      -0.00122400       0.05541000
8
Lattice="2.433582520610199 0.0 0.0 0.0 7.09297256745028 0.0 0.0 0.0 7.09297256745028" Properties=species:S:1:pos:R:3:initial_magmoms:R:1:castep_labels:S:1:forces:R:3 n_minim_iter=16 energy=-42.377965541954 stress="-0.009552559035559157 0.0 0.0 0.0 -0.0030948050071511685 0.0 0.0 0.0 -0.0030948050071511685" free_energy=-42.377965541954 pbc="T T T"
P        0.25564028       1.70595773       7.22674106       0.00000000 NULL      -0.00785000       0.02285500      -0.02534700
P        1.47243154       5.38701484      -0.13376849       0.00000000 NULL      -0.00785000      -0.02285500       0.02534700
P        2.08082717       7.22674106       5.38701484       0.00000000 NULL      -0.00785000      -0.02534700      -0.02285600
P        0.86403591      -0.13376849       1.70595773       0.00000000 NULL      -0.00785000       0.02534700       0.02285500
P        0.34292489       3.37876020       1.84189717       0.00000000 NULL       0.00785000       0.11434000      -0.03857400
P        1.55971615       3.71421237       5.25107539       0.00000000 NULL       0.00784900      -0.11434000       0.03857300
P        2.16811178       1.84189717       3.71421237       0.00000000 NULL       0.00785000      -0.03857400      -0.11434000
P        0.95132052       5.25107539       3.37876020       0.00000000 NULL       0.00785000       0.03857300       0.11434000
8
Lattice="2.4491791771326707 0.0 0.0 0.0 7.043598661638781 0.0 0.0 0.0 7.043598661638781" Properties=species:S:1:pos:R:3:initial_magmoms:R:1:castep_labels:S:1:forces:R:3 n_minim_iter=17 energy=-42.394235857124 stress="-0.00714833754609548 -0.0 -0.0 -0.0 -0.008538106898044207 0.0 -0.0 0.0 -0.008538106898044207" free_energy=-42.394235857124 pbc="T T T"
P        0.24982664       1.69927920       7.14622078       0.00000000 NULL      -0.03594500       0.03364500      -0.00366000
P        1.47441623       5.34431946      -0.10262211       0.00000000 NULL      -0.03594500      -0.03364500       0.00366000
P        2.08671102       7.14622078       5.34431946       0.00000000 NULL      -0.03594500      -0.00366000      -0.03364500
P        0.86212143      -0.10262211       1.69927920       0.00000000 NULL      -0.03594500       0.00366000       0.03364500
P        0.35257457       3.39467502       1.82554966       0.00000000 NULL       0.03594500       0.07099500      -0.05816200
P        1.57716416       3.64892364       5.21804900       0.00000000 NULL       0.03594500      -0.07099500       0.05816300
P        2.18945895       1.82554966       3.64892364       0.00000000 NULL       0.03594500      -0.05816300      -0.07099500
P        0.96486936       5.21804900       3.39467502       0.00000000 NULL       0.03594500       0.05816300       0.07099500
8
Lattice="2.511199836606833 0.0 0.0 0.0 6.988802637033427 0.0 0.0 0.0 6.988802637033427" Properties=species:S:1:pos:R:3:initial_magmoms:R:1:castep_labels:S:1:forces:R:3 n_minim_iter=18 energy=-42.466122816103 stress="0.004496416069493933 0.0 0.0 0.0 -0.0018722361991597375 0.0 0.0 0.0 -0.0018722361991597375" free_energy=-42.466122816103 pbc="T T T"
P        0.10677192       1.69126267       7.02298332       0.00000000 NULL      -0.10787000       0.01762600       0.01860600
P        1.36237184       5.29753997      -0.03418068       0.00000000 NULL      -0.10787000      -0.01762600      -0.01860600
P        1.99017180       7.02298332       5.29753997       0.00000000 NULL      -0.10787000       0.01860600      -0.01762600
P        0.73457188      -0.03418068       1.69126267       0.00000000 NULL      -0.10787000      -0.01860600       0.01762600
P        0.51088344       3.50220867       1.80120922       0.00000000 NULL       0.10787000      -0.15532800       0.00072200
P        1.76648335       3.48659396       5.18759342       0.00000000 NULL       0.10787000       0.15532900      -0.00072300
P        2.39428331       1.80120922       3.48659396       0.00000000 NULL       0.10787000       0.00072200       0.15532900
P        1.13868340       5.18759342       3.50220867       0.00000000 NULL       0.10787000      -0.00072200      -0.15532800
8
Lattice="2.532013369974669 0.0 0.0 0.0 6.971385368610371 0.0 0.0 0.0 6.971385368610371" Properties=species:S:1:pos:R:3:initial_magmoms:R:1:castep_labels:S:1:forces:R:3 n_minim_iter=19 energy=-42.480664019889 stress="0.015065454495877945 -0.0 -0.0 -0.0 -0.0007989834867224335 -0.0 -0.0 -0.0 -0.0007989834867224335" free_energy=-42.480664019889 pbc="T T T"
P        0.03615362       1.68843691       6.97981465       0.00000000 NULL      -0.08460300       0.01173800       0.05470800
P        1.30216031       5.28294846      -0.00842928       0.00000000 NULL      -0.08460400      -0.01173800      -0.05470900
P        1.93516365       6.97981465       5.28294846       0.00000000 NULL      -0.08460400       0.05470900      -0.01173800
P        0.66915697      -0.00842928       1.68843691       0.00000000 NULL      -0.08460400      -0.05470900       0.01173900
P        0.58662075       3.53137287       1.79397291       0.00000000 NULL       0.08460400      -0.23530600       0.01717900
P        1.85262743       3.44001250       5.17741246       0.00000000 NULL       0.08460400       0.23530600      -0.01717900
P        2.48563078       1.79397291       3.44001250       0.00000000 NULL       0.08460300       0.01717900       0.23530600
P        1.21962409       5.17741246       3.53137287       0.00000000 NULL       0.08460400      -0.01717900      -0.23530700
8
Lattice="2.522998357890271 0.0 0.0 0.0 7.002618565405365 0.0 0.0 0.0 7.002618565405365" Properties=species:S:1:pos:R:3:initial_magmoms:R:1:castep_labels:S:1:forces:R:3 n_minim_iter=20 energy=-42.510780586312 stress="0.012113133965079955 -0.0 -0.0 -0.0 0.006880002735656171 -0.0 -0.0 -0.0 0.006880002735656171" free_energy=-42.510780586312 pbc="T T T"
P        0.00230375       1.69554140       7.02458233       0.00000000 NULL      -0.01205900       0.00748000      -0.06193900
P        1.26380293       5.30707717      -0.02196377       0.00000000 NULL      -0.01205900      -0.00748000       0.06193900
P        1.89455252       7.02458233       5.30707717       0.00000000 NULL      -0.01205900      -0.06193900      -0.00748000
P        0.63305334      -0.02196377       1.69554140       0.00000000 NULL      -0.01205900       0.06193900       0.00748000
P        0.61825300       3.52498543       1.80165681       0.00000000 NULL       0.01205900      -0.09127600       0.02427700
P        1.87975218       3.47763314       5.20096175       0.00000000 NULL       0.01205900       0.09127600      -0.02427600
P        2.51050177       1.80165681       3.47763314       0.00000000 NULL       0.01205900       0.02427600       0.09127600
P        1.24900259       5.20096175       3.52498543       0.00000000 NULL       0.01205900      -0.02427600      -0.09127600
8
Lattice="2.499573931923327 0.0 0.0 0.0 6.980586818981899 0.0 0.0 0.0 6.980586818981899" Properties=species:S:1:pos:R:3:initial_magmoms:R:1:castep_labels:S:1:forces:R:3 n_minim_iter=21 energy=-42.523092303824 stress="-0.007867769015822796 0.0 0.0 0.0 -0.0011559044137928534 0.0 0.0 0.0 -0.0011559044137928534" free_energy=-42.523092303824 pbc="T T T"
P       -0.01029399       1.70824332       6.96909318       0.00000000 NULL       0.00126700       0.02402900       0.03783100
P        1.23949297       5.27234350       0.01149364       0.00000000 NULL       0.00126700      -0.02402900      -0.03783100
P        1.86438645       6.96909318       5.27234350       0.00000000 NULL       0.00126700       0.03783100      -0.02402900
P        0.61459949       0.01149364       1.70824332       0.00000000 NULL       0.00126700      -0.03783100       0.02402900
P        0.62508918       3.48776940       1.77985423       0.00000000 NULL      -0.00126700       0.01049000      -0.00802500
P        1.87487614       3.49281741       5.20073259       0.00000000 NULL      -0.00126700      -0.01049000       0.00802600
P        2.49976963       1.77985423       3.49281741       0.00000000 NULL      -0.00126700      -0.00802500      -0.01049000
P        1.24998266       5.20073259       3.48776940       0.00000000 NULL      -0.00126700       0.00802500       0.01049000
