10
Lattice="2.6262000000000016 1.0061011657807934e-16 9.517257932130308e-17 -0.3829437665980761 9.090157382577251 -3.273031402532305e-16 -0.38294376659807616 -0.1495263095754606 9.088927501238437" Properties=species:S:1:pos:R:3:initial_magmoms:R:1:castep_labels:S:1 n_minim_iter=1 pbc="T T T"
P        0.57133707       1.67037482       8.73144362       0.00000000 NULL
P        0.57133707       8.70278585       1.81377456       0.00000000 NULL
P        0.31783327       3.63210972       9.05386151       0.00000000 NULL
P        0.31783327       8.99289104       3.78054757       0.00000000 NULL
P        1.90684222       1.14927395       7.24313265       0.00000000 NULL
P        1.90684222       7.22324797       1.26826259       0.00000000 NULL
P        0.67055066       4.86527757       6.40315579       0.00000000 NULL
P        0.67055066       6.32225927       4.96994645       0.00000000 NULL
P        0.21124401       7.26611285       8.83991634       0.00000000 NULL
P        0.21124401       8.71919818       7.41053979       0.00000000 NULL
10
Lattice="2.6325713117211773 0.0001481597495386722 0.0001506172451545346 -0.38335997963120827 9.11105371540804 0.0016422768022235183 -0.3833599796312083 -0.14822798406097057 9.10984802106297" Properties=species:S:1:pos:R:3:initial_magmoms:R:1:castep_labels:S:1 n_minim_iter=2 pbc="T T T"
P        0.57333004       1.67573359       8.75222227       0.00000000 NULL
P        0.57333004       8.72347354       1.81947440       0.00000000 NULL
P        0.31934463       3.64247900       9.07547235       0.00000000 NULL
P        0.31934463       9.01432839       3.79127094       0.00000000 NULL
P        1.91192839       1.15371071       7.25981917       0.00000000 NULL
P        1.91192839       7.23985925       1.27297323       0.00000000 NULL
P        0.67281301       4.87756740       6.41898324       0.00000000 NULL
P        0.67281301       6.33788242       4.98249496       0.00000000 NULL
P        0.21267176       7.28418594       8.86135855       0.00000000 NULL
P        0.21267176       8.74034019       7.42896314       0.00000000 NULL
10
Lattice="2.7797525584081835 0.0037914666950302025 0.003854354981557135 -0.39221075544849604 9.594934456585769 0.04342997116944615 -0.3922107554484963 -0.11440542080877276 9.594350670486364" Properties=species:S:1:pos:R:3:initial_magmoms:R:1:castep_labels:S:1 n_minim_iter=3 pbc="T T T"
P        0.62022556       1.80347820       9.23455843       0.00000000 NULL
P        0.62022556       9.20364314       1.95513580       0.00000000 NULL
P        0.35540080       3.88666414       9.57761578       0.00000000 NULL
P        0.35540080       9.51238722       4.04368292       0.00000000 NULL
P        2.03012683       1.25995085       7.64680696       0.00000000 NULL
P        2.03012683       7.62504710       1.38556466       0.00000000 NULL
P        0.72602852       5.16488613       6.78770928       0.00000000 NULL
P        0.72602852       6.70183239       5.27584008       0.00000000 NULL
P        0.24699833       7.70602723       9.36076805       0.00000000 NULL
P        0.24699833       9.23274315       7.85896227       0.00000000 NULL
10
Lattice="2.8058505335731416 0.0077219885316667045 0.007850071584057478 -0.3824114236457301 9.713864908139008 0.10494184469138038 -0.3824114236457304 -0.05485818695924822 9.714276855415703" Properties=species:S:1:pos:R:3:initial_magmoms:R:1:castep_labels:S:1 n_minim_iter=4 pbc="T T T"
P        0.64084020       1.88522574       9.36840237       0.00000000 NULL
P        0.64084020       9.33612428       2.03907391       0.00000000 NULL
P        0.37880716       3.99969082       9.72310555       0.00000000 NULL
P        0.37880716       9.65599810       4.15908751       0.00000000 NULL
P        2.06172153       1.33307921       7.75178053       0.00000000 NULL
P        2.06172153       7.72880357       1.46040986       0.00000000 NULL
P        0.74967460       5.27445024       6.90711388       0.00000000 NULL
P        0.74967460       6.81941859       5.38735349       0.00000000 NULL
P        0.27336992       7.85677759       9.52481034       0.00000000 NULL
P        0.27336992       9.39428351       8.01239061       0.00000000 NULL
10
Lattice="2.803376313337459 0.012343764656899906 0.012548508169372878 -0.3660531266455573 9.760043374165399 0.17094514675993308 -0.36605312664555756 0.010376583659047494 9.761534778676058" Properties=species:S:1:pos:R:3:initial_magmoms:R:1:castep_labels:S:1 n_minim_iter=5 pbc="T T T"
P        0.65750264       1.95881113       9.43410590       0.00000000 NULL
P        0.65750264       9.40060850       2.11373011       0.00000000 NULL
P        0.40259196       4.08738797       9.79741573       0.00000000 NULL
P        0.40259196       9.72885567       4.24799513       0.00000000 NULL
P        2.07486903       1.40199471       7.80106084       0.00000000 NULL
P        2.07486903       7.77694361       1.53012666       0.00000000 NULL
P        0.76896570       5.34946332       6.97739622       0.00000000 NULL
P        0.76896570       6.88845751       5.46351251       0.00000000 NULL
P        0.30177131       7.95273641       9.62201941       0.00000000 NULL
P        0.30177131       9.48990099       8.10993546       0.00000000 NULL
10
Lattice="2.784688086602175 0.01781906428528182 0.018114625478496186 -0.34437622645676674 9.773581731271127 0.24339763817100724 -0.3443762264567671 0.08259657650558391 9.776263093516537" Properties=species:S:1:pos:R:3:initial_magmoms:R:1:castep_labels:S:1 n_minim_iter=6 pbc="T T T"
P        0.67337792       2.03357398       9.47172525       0.00000000 NULL
P        0.67337792       9.43699297       2.18910166       0.00000000 NULL
P        0.42919216       4.16847930       9.84121424       0.00000000 NULL
P        0.42919216       9.77131437       4.32979595       0.00000000 NULL
P        2.07901257       1.47467934       7.82652616       0.00000000 NULL
P        2.07901257       7.80120987       1.60322034       0.00000000 NULL
P        0.78777181       5.41231107       7.02870608       0.00000000 NULL
P        0.78777181       6.93872663       5.52719577       0.00000000 NULL
P        0.33427193       8.02638008       9.69217116       0.00000000 NULL
P        0.33427193       9.55883186       8.18472312       0.00000000 NULL
10
Lattice="2.7286536384761653 0.03247729220878612 0.03301598644569563 -0.28546843519983056 9.812791370773063 0.43582508997012653 -0.28546843519983095 0.2743530239018265 9.8186327160986" Properties=species:S:1:pos:R:3:initial_magmoms:R:1:castep_labels:S:1 n_minim_iter=7 pbc="T T T"
P        0.71299133       2.23520101       9.57963299       0.00000000 NULL
P        0.71299133       9.54156949       2.39247641       0.00000000 NULL
P        0.50092835       4.38534677       9.95819174       0.00000000 NULL
P        0.50092835       9.88470873       4.54855827       0.00000000 NULL
P        2.08569747       1.67399446       7.89804304       0.00000000 NULL
P        2.08569747       7.86943849       1.80368489       0.00000000 NULL
P        0.83657410       5.57916257       7.17047122       0.00000000 NULL
P        0.83657410       7.07772800       5.69635662       0.00000000 NULL
P        0.42119054       8.21522824       9.87801303       0.00000000 NULL
P        0.42119054       9.74154217       8.37660269       0.00000000 NULL
10
Lattice="2.6986270726230717 0.03915380101758851 0.03980323714747532 -0.25798042893071016 9.832024103393133 0.5126558110897936 -0.2579804289307106 0.3508569858602521 9.839126654628492" Properties=species:S:1:pos:R:3:initial_magmoms:R:1:castep_labels:S:1 n_minim_iter=8 pbc="T T T"
P        0.72502967       2.32372084       9.64262970       0.00000000 NULL
P        0.72502967       9.60310160       2.48202051       0.00000000 NULL
P        0.53719498       4.47549146       9.99956682       0.00000000 NULL
P        0.53719498       9.92459540       4.63937135       0.00000000 NULL
P        2.08481155       1.77219172       7.93203601       0.00000000 NULL
P        2.08481155       7.90181158       1.90242802       0.00000000 NULL
P        0.85746130       5.64022383       7.24249501       0.00000000 NULL
P        0.85746130       7.14873764       5.75859437       0.00000000 NULL
P        0.46215680       8.26417920       9.94548829       0.00000000 NULL
P        0.46215680       9.80820310       8.42665694       0.00000000 NULL
10
Lattice="2.666894369574127 0.042621883702182166 0.04332884421382179 -0.24134907631146782 9.726458788494368 0.6066919289132437 -0.2413490763114683 0.44661685147266034 9.735122446526727" Properties=species:S:1:pos:R:3:initial_magmoms:R:1:castep_labels:S:1 n_minim_iter=9 pbc="T T T"
P        0.72838220       2.40034296       9.57382564       0.00000000 NULL
P        0.72838220       9.53304646       2.55750050       0.00000000 NULL
P        0.55374258       4.53072021       9.92956109       0.00000000 NULL
P        0.55374258       9.85369067       4.69344109       0.00000000 NULL
P        2.07272719       1.84748617       7.86764195       0.00000000 NULL
P        2.07272719       7.83618770       1.97665305       0.00000000 NULL
P        0.86404105       5.64865905       7.22886260       0.00000000 NULL
P        0.86404105       7.13496831       5.76680420       0.00000000 NULL
P        0.48192574       8.25310225       9.91328113       0.00000000 NULL
P        0.48192574       9.77618251       8.41505170       0.00000000 NULL
10
Lattice="2.6795366307484727 0.043660190450273306 0.04438437314465358 -0.23959860161833035 9.779994017902402 0.6310164010477499 -0.2395986016183308 0.47005741795384814 9.78905055214369" Properties=species:S:1:pos:R:3:initial_magmoms:R:1:castep_labels:S:1 n_minim_iter=10 pbc="T T T"
P        0.73405311       2.43526310       9.63509797       0.00000000 NULL
P        0.73405311       9.59373610       2.59342379       0.00000000 NULL
P        0.56164676       4.57916629       9.99168657       0.00000000 NULL
P        0.56164676       9.91501084       4.74290253       0.00000000 NULL
P        2.08509262       1.87893451       7.91505499       0.00000000 NULL
P        2.08509262       7.88307703       2.00887705       0.00000000 NULL
P        0.87149340       5.69210296       7.28482926       0.00000000 NULL
P        0.87149340       7.19021278       5.81116283       0.00000000 NULL
P        0.48977060       8.31121416       9.98266329       0.00000000 NULL
P        0.48977060       9.84459938       8.47429703       0.00000000 NULL
10
Lattice="2.673282229023755 0.044394226186586595 0.04513058418235269 -0.2361458621004701 9.768896506601653 0.6524055157257448 -0.23614586210047053 0.4916261845089829 9.77830637730014" Properties=species:S:1:pos:R:3:initial_magmoms:R:1:castep_labels:S:1 n_minim_iter=11 pbc="T T T"
P        0.73467817       2.45526267       9.63228006       0.00000000 NULL
P        0.73467817       9.59058959       2.61337430       0.00000000 NULL
P        0.56548027       4.59769756       9.98817781       0.00000000 NULL
P        0.56548027       9.91119773       4.76137358       0.00000000 NULL
P        2.08281411       1.89811196       7.91082161       0.00000000 NULL
P        2.08281411       7.87852876       2.02798227       0.00000000 NULL
P        0.87286366       5.69975428       7.29235141       0.00000000 NULL
P        0.87286366       7.19760806       5.81893686       0.00000000 NULL
P        0.49409829       8.31703985       9.98771086       0.00000000 NULL
P        0.49409829       9.84955043       8.48020497       0.00000000 NULL
10
Lattice="2.6674780763812134 0.04552341021650041 0.046278497757987695 -0.23139103587982723 9.759324123887687 0.6850874159523754 -0.23139103587982768 0.5244611214921083 9.769272882596526" Properties=species:S:1:pos:R:3:initial_magmoms:R:1:castep_labels:S:1 n_minim_iter=12 pbc="T T T"
P        0.73658937       2.48711394       9.63479331       0.00000000 NULL
P        0.73658937       9.59257857       2.64526260       0.00000000 NULL
P        0.57176419       4.62905643       9.99035970       0.00000000 NULL
P        0.57176419       9.91286350       4.79276410       0.00000000 NULL
P        2.08208629       1.92806111       7.91014668       0.00000000 NULL
P        2.08208629       7.87736128       2.05791626       0.00000000 NULL
P        0.87592542       5.71541398       7.30899121       0.00000000 NULL
P        0.87592542       7.21398801       5.83486816       0.00000000 NULL
P        0.50103380       8.33224086      10.00271864       0.00000000 NULL
P        0.50103380       9.86430614       8.49565079       0.00000000 NULL
10
Lattice="2.650813259591678 0.049254398610145314 0.05007137129688154 -0.21604682774569672 9.724023498467453 0.7966228278663224 -0.2160468277456972 0.6365621118340943 9.735811707628818" Properties=species:S:1:pos:R:3:initial_magmoms:R:1:castep_labels:S:1 n_minim_iter=13 pbc="T T T"
P        0.74370162       2.59522479       9.63965536       0.00000000 NULL
P        0.74370162       9.59566162       2.75343881       0.00000000 NULL
P        0.59279040       4.73513265       9.99555902       0.00000000 NULL
P        0.59279040       9.91631724       4.89891149       0.00000000 NULL
P        2.08151604       2.02854485       7.90574132       0.00000000 NULL
P        2.08151604       7.87130364       2.15831395       0.00000000 NULL
P        0.88653407       5.76760802       7.36374625       0.00000000 NULL
P        0.88653407       7.26787710       5.88795581       0.00000000 NULL
P        0.52408164       8.38322320      10.05181442       0.00000000 NULL
P        0.52408164       9.91255665       8.54743382       0.00000000 NULL
10
Lattice="2.631913953574183 0.05493790564165596 0.055849149502960174 -0.19361847315204536 9.666942048722136 0.9802697371146163 -0.1936184731520458 0.8211231212755209 9.681758835591896" Properties=species:S:1:pos:R:3:initial_magmoms:R:1:castep_labels:S:1 n_minim_iter=14 pbc="T T T"
P        0.75653897       2.77275512       9.64466272       0.00000000 NULL
P        0.75653897       9.59774806       2.93102748       0.00000000 NULL
P        0.62612982       4.91306721      10.00538483       0.00000000 NULL
P        0.62612982       9.92321483       5.07698360       0.00000000 NULL
P        2.08525738       2.18953976       7.89891756       0.00000000 NULL
P        2.08525738       7.86183256       2.31917482       0.00000000 NULL
P        0.90330679       5.85289674       7.45690681       0.00000000 NULL
P        0.90330679       7.35962212       5.97476542       0.00000000 NULL
P        0.55973995       8.46900980      10.13595604       0.00000000 NULL
P        0.55973995       9.99527577       8.63459288       0.00000000 NULL
10
Lattice="2.5790843540540638 0.06161548943756388 0.06263749302243775 -0.16280168331568434 9.571873430545478 1.2294853083260124 -0.16280168331568481 1.0718687819525494 9.590802490305368" Properties=species:S:1:pos:R:3:initial_magmoms:R:1:castep_labels:S:1 n_minim_iter=15 pbc="T T T"
P        0.76444358       3.00973866       9.63104450       0.00000000 NULL
P        0.76444358       9.58023348       3.16775495       0.00000000 NULL
P        0.66591745       5.16143893       9.99686427       0.00000000 NULL
P        0.66591745       9.91060989       5.32518156       0.00000000 NULL
P        2.06675568       2.40072959       7.87390543       0.00000000 NULL
P        2.06675568       7.83334989       2.52992465       0.00000000 NULL
P        0.91095601       5.95103298       7.58639190       0.00000000 NULL
P        0.91095601       7.48747542       6.07501830       0.00000000 NULL
P        0.60026303       8.55694031      10.23638582       0.00000000 NULL
P        0.60026303      10.09424557       8.72416349       0.00000000 NULL
10
Lattice="2.6840555463755043 0.0690184760374078 0.07016327145454457 -0.15248401919192064 9.701251920085198 1.3724301303498783 -0.15248401919192112 1.21266608414515 9.722514810891939" Properties=species:S:1:pos:R:3:initial_magmoms:R:1:castep_labels:S:1 n_minim_iter=16 pbc="T T T"
P        0.81353238       3.17967910       9.79947035       0.00000000 NULL
P        0.81353238       9.74584115       3.34044287       0.00000000 NULL
P        0.72312749       5.37615298      10.18269211       0.00000000 NULL
P        0.72312749      10.09288071       5.54292329       0.00000000 NULL
P        2.16608673       2.54231567       8.00272365       0.00000000 NULL
P        2.16608673       7.95982170       2.67361054       0.00000000 NULL
P        0.96439838       6.11335013       7.78306369       0.00000000 NULL
P        0.96439838       7.68145061       6.24054860       0.00000000 NULL
P        0.65598368       8.77108656      10.47290202       0.00000000 NULL
P        0.65598368      10.32720722       8.94217128       0.00000000 NULL
10
Lattice="2.6047093687107377 0.06575321562621804 0.06684385083337767 -0.15221618235264991 9.517093034996645 1.3467948107816028 -0.1522161823526504 1.190063509303254 9.537959160268766" Properties=species:S:1:pos:R:3:initial_magmoms:R:1:castep_labels:S:1 n_minim_iter=17 pbc="T T T"
P        0.78417719       3.11896306       9.61246619       0.00000000 NULL
P        0.78417719       9.55986102       3.27665898       0.00000000 NULL
P        0.69665205       5.27504856       9.98634460       0.00000000 NULL
P        0.69665205       9.89822285       5.43860278       0.00000000 NULL
P        2.09787956       2.49191871       7.84984277       0.00000000 NULL
P        2.09787956       7.80779049       2.62070562       0.00000000 NULL
P        0.92977188       5.99581896       7.63753735       0.00000000 NULL
P        0.92977188       7.53787725       6.12063953       0.00000000 NULL
P        0.62952238       8.60240708      10.27550983       0.00000000 NULL
P        0.62952238      10.13261639       8.77026767       0.00000000 NULL
10
Lattice="2.600438055814848 0.0652456045537364 0.06632782011933297 -0.15335036554103118 9.538080131031627 1.3516182986162542 -0.15335036554103168 1.194541122451234 9.559022759566362" Properties=species:S:1:pos:R:3:initial_magmoms:R:1:castep_labels:S:1 n_minim_iter=18 pbc="T T T"
P        0.78098454       3.12729231       9.63450194       0.00000000 NULL
P        0.78098454       9.58175678       3.28534956       0.00000000 NULL
P        0.69452716       5.29133620      10.00823488       0.00000000 NULL
P        0.69452716       9.91984225       5.45524829       0.00000000 NULL
P        2.09293516       2.49822502       7.86636459       0.00000000 NULL
P        2.09293516       7.82420634       2.62728285       0.00000000 NULL
P        0.92564003       6.00803322       7.65831327       0.00000000 NULL
P        0.92564003       7.55844944       6.13319389       0.00000000 NULL
P        0.62642952       8.61911237      10.29979459       0.00000000 NULL
P        0.62642952      10.15662307       8.78737016       0.00000000 NULL
10
Lattice="2.593865548716757 0.06509929785342512 0.06617908665955628 -0.1528984008421581 9.541966474782877 1.3635738660535897 -0.15289840084215858 1.2064311448662912 9.563105237670529" Properties=species:S:1:pos:R:3:initial_magmoms:R:1:castep_labels:S:1 n_minim_iter=19 pbc="T T T"
P        0.77870676       3.13981254       9.64208752       0.00000000 NULL
P        0.77870676       9.58913539       3.29799288       0.00000000 NULL
P        0.69435995       5.30895100      10.01584602       0.00000000 NULL
P        0.69435995       9.92716261       5.47298591       0.00000000 NULL
P        2.08742457       2.50797684       7.87051024       0.00000000 NULL
P        2.08742457       7.82819102       2.63710154       0.00000000 NULL
P        0.92203270       6.01577864       7.67244704       0.00000000 NULL
P        0.92203270       7.57245390       6.14117075       0.00000000 NULL
P        0.62547208       8.62810036      10.31325085       0.00000000 NULL
P        0.62547208      10.16992967       8.79657828       0.00000000 NULL
