6
Lattice="4.95259 0.0 0.0 0.0 5.659909999999999 1.175352687504664e-15 0.0 -2.829955 4.90162584313358" Properties=species:S:1:pos:R:3:initial_magmoms:R:1:castep_labels:S:1 n_minim_iter=1 pbc="T T T"
P        3.08623915       1.72273256       1.97939562       0.00000000 NULL
P        1.43537582       3.08433682       0.50223235       0.00000000 NULL
P        4.73710248       3.68279561       2.41999786       0.00000000 NULL
P        3.31559210      -1.73837598       3.85962891       0.00000000 NULL
P        1.66472877       0.35660630       1.46633363       0.00000000 NULL
P        0.01386543       1.38176967       4.47728914       0.00000000 NULL
6
Lattice="4.951206712007006 0.0 0.0 0.0 5.657642918831162 7.79623582937992e-16 0.0 -2.828821459415581 4.899662493248925" Properties=species:S:1:pos:R:3:initial_magmoms:R:1:castep_labels:S:1 n_minim_iter=2 pbc="T T T"
P        3.08543374       1.72214986       1.97862572       0.00000000 NULL
P        1.43503151       3.08302784       0.50211267       0.00000000 NULL
P        4.73583598       3.68128666       2.41892410       0.00000000 NULL
P        3.31460944      -1.73770930       3.85811561       0.00000000 NULL
P        1.66420720       0.35644998       1.46570429       0.00000000 NULL
P        0.01380496       1.38125931       4.47550508       0.00000000 NULL
6
Lattice="4.867556855752267 0.0 0.0 0.0 5.519603044018091 -3.4138219456176645e-16 0.0 -2.759801522009045 4.780116454925583" Properties=species:S:1:pos:R:3:initial_magmoms:R:1:castep_labels:S:1 n_minim_iter=3 pbc="T T T"
P        3.03681260       1.68667270       1.93176689       0.00000000 NULL
P        1.41429365       3.00330748       0.49481796       0.00000000 NULL
P        4.65933155       3.58942437       2.35353159       0.00000000 NULL
P        3.25510286      -1.69710746       3.76601456       0.00000000 NULL
P        1.63258391       0.34689097       1.42737100       0.00000000 NULL
P        0.01006496       1.35021648       4.36684734       0.00000000 NULL
6
Lattice="4.88019097873274 0.0 0.0 0.0 5.461732325484507 -1.9196604433033974e-16 0.0 -2.730866162742253 4.72999894254024" Properties=species:S:1:pos:R:3:initial_magmoms:R:1:castep_labels:S:1 n_minim_iter=4 pbc="T T T"
P        3.05130419       1.67739517       1.91461320       0.00000000 NULL
P        1.42457386       2.96493106       0.49536023       0.00000000 NULL
P        4.67803451       3.55027224       2.32002550       0.00000000 NULL
P        3.25694243      -1.68088201       3.73161728       0.00000000 NULL
P        1.63021210       0.33963180       1.40850378       0.00000000 NULL
P        0.00348178       1.34125020       4.31987682       0.00000000 NULL
6
Lattice="4.917733012084956 0.0 0.0 0.0 5.357694298462839 -5.87047355192274e-16 0.0 -2.678847149231418 4.639899368179863" Properties=species:S:1:pos:R:3:initial_magmoms:R:1:castep_labels:S:1 n_minim_iter=5 pbc="T T T"
P        3.08620027       1.65945977       1.88375600       0.00000000 NULL
P        1.44695593       2.89658385       0.49525631       0.00000000 NULL
P        4.72544461       3.48049782       2.26088704       0.00000000 NULL
P        3.27057404      -1.65233055       3.66883126       0.00000000 NULL
P        1.63132970       0.32771134       1.37452351       0.00000000 NULL
P       -0.00791463       1.32461920       4.23644396       0.00000000 NULL
6
Lattice="4.9846712643522695 0.0 0.0 0.0 5.242670528497289 -8.629243768652868e-16 0.0 -2.621335264248643 4.54028586135064" Properties=species:S:1:pos:R:3:initial_magmoms:R:1:castep_labels:S:1 n_minim_iter=6 pbc="T T T"
P        3.14004991       1.63737888       1.84954517       0.00000000 NULL
P        1.47849283       2.82222798       0.49323912       0.00000000 NULL
P        4.80160700       3.40439892       2.19750156       0.00000000 NULL
P        3.30325031      -1.62170802       3.59789435       0.00000000 NULL
P        1.64169322       0.31632136       1.33689834       0.00000000 NULL
P       -0.01986386       1.30538665       4.14577902       0.00000000 NULL
6
Lattice="5.072242132740276 0.0 0.0 0.0 5.111853778346364 -6.442213434753244e-16 0.0 -2.555926889173181 4.426995232479417" Properties=species:S:1:pos:R:3:initial_magmoms:R:1:castep_labels:S:1 n_minim_iter=7 pbc="T T T"
P        3.20755157       1.60924136       1.81004776       0.00000000 NULL
P        1.51680419       2.73968575       0.48862002       0.00000000 NULL
P        4.89829895       3.31885355       2.12832744       0.00000000 NULL
P        3.34894477      -1.58745320       3.51549001       0.00000000 NULL
P        1.65819739       0.30514982       1.29447542       0.00000000 NULL
P       -0.03254999       1.28230337       4.04402502       0.00000000 NULL
6
Lattice="5.166997966523113 0.0 0.0 0.0 4.975883347342916 5.628157802657863e-16 0.0 -2.4879416736714575 4.30924138506691" Properties=species:S:1:pos:R:3:initial_magmoms:R:1:castep_labels:S:1 n_minim_iter=8 pbc="T T T"
P        3.28052473       1.57793495       1.76872696       0.00000000 NULL
P        1.55819207       2.65515338       0.48216828       0.00000000 NULL
P        5.00285738       3.23073667       2.05834614       0.00000000 NULL
P        3.39845516      -1.55248619       3.42934079       0.00000000 NULL
P        1.67612251       0.29428852       1.25007851       0.00000000 NULL
P       -0.04621015       1.25819766       3.93906346       0.00000000 NULL
6
Lattice="5.7518740952294385 0.0 0.0 0.0 4.344971600912493 1.4548639624868394e-16 0.0 -2.1724858004562453 3.7628557851121576" Properties=species:S:1:pos:R:3:initial_magmoms:R:1:castep_labels:S:1 n_minim_iter=9 pbc="T T T"
P        3.73511523       1.42613918       1.57756285       0.00000000 NULL
P        1.81782387       2.26569250       0.44629134       0.00000000 NULL
P        5.65240660       2.82562571       1.73900159       0.00000000 NULL
P        3.69988894      -1.39418336       3.03372713       0.00000000 NULL
P        1.78259757       0.24229271       1.03859402       0.00000000 NULL
P       -0.13469379       1.15189063       3.45339042       0.00000000 NULL
6
Lattice="5.686523645331764 0.0 0.0 0.0 4.882248301682224 3.5935566678658795e-16 0.0 -2.4411241508411115 4.228151056840235" Properties=species:S:1:pos:R:3:initial_magmoms:R:1:castep_labels:S:1 n_minim_iter=10 pbc="T T T"
P        3.70222425       1.59035716       1.76965580       0.00000000 NULL
P        1.80671637       2.55450284       0.49246181       0.00000000 NULL
P        5.59773213       3.17851244       1.96603345       0.00000000 NULL
P        3.64830643      -1.56237304       3.43996545       0.00000000 NULL
P        1.75279855       0.24321320       1.15511359       0.00000000 NULL
P       -0.14270933       1.31915983       3.86122307       0.00000000 NULL
6
Lattice="5.297286097905619 0.0 0.0 0.0 4.603921847076841 5.962092636349177e-16 0.0 -2.30196092353842 3.9871132766067174" Properties=species:S:1:pos:R:3:initial_magmoms:R:1:castep_labels:S:1 n_minim_iter=11 pbc="T T T"
P        3.44710178       1.50318374       1.66936445       0.00000000 NULL
P        1.68133974       2.40661795       0.46711308       0.00000000 NULL
P        5.21286381       2.99608108       1.85063574       0.00000000 NULL
P        3.40029154      -1.47980131       3.24560681       0.00000000 NULL
P        1.63452951       0.23108362       1.08276434       0.00000000 NULL
P       -0.13123253       1.24871768       3.64585539       0.00000000 NULL
6
Lattice="5.357909221869667 0.0 0.0 0.0 4.581195996222423 6.493785542986846e-16 0.0 -2.290597998111211 3.967432112444175" Properties=species:S:1:pos:R:3:initial_magmoms:R:1:castep_labels:S:1 n_minim_iter=12 pbc="T T T"
P        3.49092471       1.49554073       1.66350048       0.00000000 NULL
P        1.70495497       2.39279195       0.46342603       0.00000000 NULL
P        5.27689445       2.98346130       1.84050560       0.00000000 NULL
P        3.43483144      -1.47562543       3.23665405       0.00000000 NULL
P        1.64886170       0.22538607       1.07117598       0.00000000 NULL
P       -0.13710804       1.25023934       3.62703419       0.00000000 NULL
6
Lattice="5.424598183011768 0.0 0.0 0.0 4.527279130100059 2.5197819422139964e-16 0.0 -2.2636395650500285 3.920738736689763" Properties=species:S:1:pos:R:3:initial_magmoms:R:1:castep_labels:S:1 n_minim_iter=13 pbc="T T T"
P        3.54315304       1.47721187       1.64849135       0.00000000 NULL
P        1.73495364       2.36103780       0.45505733       0.00000000 NULL
P        5.35135243       2.95266901       1.81719005       0.00000000 NULL
P        3.46880679      -1.46513679       3.21452442       0.00000000 NULL
P        1.66060740       0.21234814       1.04463085       0.00000000 NULL
P       -0.14759200       1.25278864       3.58232220       0.00000000 NULL
6
Lattice="5.463888015040321 0.0 0.0 0.0 4.558752847208713 -1.5391956931265526e-16 0.0 -2.279376423604355 3.947995775257383" Properties=species:S:1:pos:R:3:initial_magmoms:R:1:castep_labels:S:1 n_minim_iter=14 pbc="T T T"
P        3.57411673       1.48620688       1.66255861       0.00000000 NULL
P        1.75282073       2.37583141       0.45581360       0.00000000 NULL
P        5.39541274       2.97609098       1.82962355       0.00000000 NULL
P        3.48863004      -1.47963373       3.24869326       0.00000000 NULL
P        1.66733403       0.20574239       1.04224875       0.00000000 NULL
P       -0.15396197       1.27389133       3.60504954       0.00000000 NULL
6
Lattice="5.427920541778039 0.0 0.0 0.0 4.534692036282437 6.353093282521777e-16 0.0 -2.2673460181412177 3.9271585017595734" Properties=species:S:1:pos:R:3:initial_magmoms:R:1:castep_labels:S:1 n_minim_iter=15 pbc="T T T"
P        3.55161973       1.47833044       1.65437755       0.00000000 NULL
P        1.74231289       2.36279383       0.45308294       0.00000000 NULL
P        5.36092658       2.96091378       1.81969801       0.00000000 NULL
P        3.46463466      -1.47328000       3.23475974       0.00000000 NULL
P        1.65532781       0.20260190       1.03388072       0.00000000 NULL
P       -0.15397904       1.27067809       3.58567653       0.00000000 NULL
6
Lattice="5.425745367424752 0.0 0.0 0.0 4.53670134195334 8.746979177614668e-17 0.0 -2.2683506709766688 3.928898611514544" Properties=species:S:1:pos:R:3:initial_magmoms:R:1:castep_labels:S:1 n_minim_iter=16 pbc="T T T"
P        3.55139240       1.47874964       1.65575298       0.00000000 NULL
P        1.74281061       2.36340237       0.45275826       0.00000000 NULL
P        5.35997419       2.96289999       1.82038736       0.00000000 NULL
P        3.46205031      -1.47517559       3.23931633       0.00000000 NULL
P        1.65346852       0.20060823       1.03170091       0.00000000 NULL
P       -0.15511326       1.27456735       3.58677998       0.00000000 NULL
6
Lattice="5.412617291207929 0.0 0.0 0.0 4.540668382014272 8.267353675815461e-17 0.0 -2.2703341910071346 3.932334168985142" Properties=species:S:1:pos:R:3:initial_magmoms:R:1:castep_labels:S:1 n_minim_iter=17 pbc="T T T"
P        3.54697674       1.47926681       1.65949341       0.00000000 NULL
P        1.74277098       2.36387152       0.45133593       0.00000000 NULL
P        5.35118251       2.96786424       1.82150482       0.00000000 NULL
P        3.44949632      -1.48100786       3.25337873       0.00000000 NULL
P        1.64529056       0.19332949       1.02305438       0.00000000 NULL
P       -0.15891521       1.28767836       3.58823523       0.00000000 NULL
6
Lattice="5.263880668845529 0.0 0.0 0.0 4.6195810613788435 -2.2612543450810635e-16 0.0 -2.30979053068942 4.000674553995558" Properties=species:S:1:pos:R:3:initial_magmoms:R:1:castep_labels:S:1 n_minim_iter=18 pbc="T T T"
P        3.49449296       1.49748861       1.71561454       0.00000000 NULL
P        1.73986607       2.38507098       0.43905591       0.00000000 NULL
P        5.24911985       3.04681200       1.84600410       0.00000000 NULL
P        3.30971969      -1.56363064       3.44536917       0.00000000 NULL
P        1.55509280       0.10782862       0.92384611       0.00000000 NULL
P       -0.19953409       1.45580201       3.63213382       0.00000000 NULL
