4
Lattice="2.0391699999999973 7.746564294323494e-16 1.1796480695979364e-15 -0.45514352742908926 6.758662140567422 -1.5471876825494435e-15 -0.4551435274290891 -2.5441493993655286 6.261534777037289" Properties=species:S:1:pos:R:3:initial_magmoms:R:1:castep_labels:S:1 n_minim_iter=1 pbc="T T T"
P        0.76012179       0.44900166       3.02846956       0.00000000 NULL
P        0.36876115       1.57781633       4.70555841       0.00000000 NULL
P        0.97356379       3.23895361       0.82001560       0.00000000 NULL
P        0.15531915       4.67404535       2.95214270       0.00000000 NULL
4
Lattice="2.04464564793081 0.00024415983508167593 0.0003627501902114882 -0.4555564463522672 6.757319021555942 0.001953182047460994 -0.455556446352267 -2.541834294331873 6.261025682279241" Properties=species:S:1:pos:R:3:initial_magmoms:R:1:castep_labels:S:1 n_minim_iter=2 pbc="T T T"
P        0.76263799       0.44969937       3.02868832       0.00000000 NULL
P        0.37089476       1.57909245       4.70663651       0.00000000 NULL
P        0.97665995       3.23871185       0.82111551       0.00000000 NULL
P        0.15687280       4.67415148       2.95375948       0.00000000 NULL
4
Lattice="2.275818903998946 0.010933688011250409 0.016244266402240477 -0.4717248392912177 6.701569040587268 0.07996890196221071 -0.4717248392912173 -2.4485710995030545 6.238743639685572" Properties=species:S:1:pos:R:3:initial_magmoms:R:1:castep_labels:S:1 n_minim_iter=3 pbc="T T T"
P        0.86924640       0.47769830       3.03694162       0.00000000 NULL
P        0.46312282       1.63018853       4.74920543       0.00000000 NULL
P        1.10798794       3.22862767       0.86559962       0.00000000 NULL
P        0.22438128       4.67734614       3.01797206       0.00000000 NULL
4
Lattice="2.3968877634789068 0.025480174296541154 0.037856095657992 -0.45053431649559317 6.562475051727056 0.11778525445934343 -0.4505343164955923 -2.3611774286506195 6.124115717484354" Properties=species:S:1:pos:R:3:initial_magmoms:R:1:castep_labels:S:1 n_minim_iter=4 pbc="T T T"
P        0.94037835       0.48256423       2.99383171       0.00000000 NULL
P        0.55544078       1.63480537       4.70572545       0.00000000 NULL
P        1.19206787       3.17788249       0.88024859       0.00000000 NULL
P        0.30375125       4.60751893       3.00427070       0.00000000 NULL
4
Lattice="2.4406540919926125 0.04141344024062104 0.06152827437637671 -0.40749347136277125 6.403119999138355 0.14448882148649858 -0.40749347136277 -2.2764523213688395 5.986533852859646" Properties=species:S:1:pos:R:3:initial_magmoms:R:1:castep_labels:S:1 n_minim_iter=5 pbc="T T T"
P        0.98358275       0.47881764       2.93430968       0.00000000 NULL
P        0.64208439       1.62984231       4.64439610       0.00000000 NULL
P        1.23806555       3.11708802       0.88666754       0.00000000 NULL
P        0.38760160       4.51999069       2.97097110       0.00000000 NULL
4
Lattice="2.4546851201679667 0.06368873861972227 0.09462286063923595 -0.3367955481060126 6.240452360438845 0.1738252954438905 -0.33679554810601087 -2.1880410182461687 5.846874156223579" Properties=species:S:1:pos:R:3:initial_magmoms:R:1:castep_labels:S:1 n_minim_iter=6 pbc="T T T"
P        1.02325472       0.47141977       2.86730071       0.00000000 NULL
P        0.75783930       1.63715670       4.59924524       0.00000000 NULL
P        1.27345846       3.05757993       0.89828677       0.00000000 NULL
P        0.50763556       4.43484456       2.94449968       0.00000000 NULL
4
Lattice="2.4425893284533373 0.08500799565276992 0.12629704874358985 -0.2634348294399239 6.186060827363904 0.1395599263867608 -0.263434829439922 -2.1993115348383263 5.7835849008747475" Properties=species:S:1:pos:R:3:initial_magmoms:R:1:castep_labels:S:1 n_minim_iter=7 pbc="T T T"
P        1.04517187       0.44219115       2.81119425       0.00000000 NULL
P        0.87054780       1.63379103       4.58156358       0.00000000 NULL
P        1.28139651       3.03647504       0.88717125       0.00000000 NULL
P        0.63432315       4.39285523       2.90235598       0.00000000 NULL
4
Lattice="2.4567123826189956 0.09390569904939779 0.13951643676657138 -0.23709639056834442 6.208571440953618 -0.0012263907777006011 -0.23709639056834286 -2.3382160643997163 5.7514438602530324" Properties=species:S:1:pos:R:3:initial_magmoms:R:1:castep_labels:S:1 n_minim_iter=8 pbc="T T T"
P        1.05393955       0.37627131       2.74460122       0.00000000 NULL
P        0.92858005       1.56317559       4.50799425       0.00000000 NULL
P        1.27539256       3.02956428       0.81726396       0.00000000 NULL
P        0.70712704       4.34752293       2.77536551       0.00000000 NULL
4
Lattice="2.44244018021484 0.09730922459465817 0.14457308147850662 -0.22263012253104714 6.227471777792211 -0.07878834275048965 -0.22263012253104583 -2.4171876314299063 5.739757512353122" Properties=species:S:1:pos:R:3:initial_magmoms:R:1:castep_labels:S:1 n_minim_iter=9 pbc="T T T"
P        1.05057607       0.33921510       2.70846694       0.00000000 NULL
P        0.94660386       1.52603534       4.47173512       0.00000000 NULL
P        1.25993570       3.02717592       0.77763864       0.00000000 NULL
P        0.73724423       4.32666689       2.70830262       0.00000000 NULL
4
Lattice="2.4502745980221463 0.1022454464551871 0.15190686517898216 -0.20801806407097392 6.25047456660553 -0.1743175539309334 -0.2080180640709729 -2.514349169573799 5.7251084855096455" Properties=species:S:1:pos:R:3:initial_magmoms:R:1:castep_labels:S:1 n_minim_iter=10 pbc="T T T"
P        1.05783025       0.29352219       2.66350310       0.00000000 NULL
P        0.97640821       1.48126929       4.42814832       0.00000000 NULL
P        1.25276162       3.02383743       0.72869193       0.00000000 NULL
P        0.78147684       4.30153415       2.62697600       0.00000000 NULL
4
Lattice="2.435216947201322 0.10865131586151554 0.1614241158145668 -0.18342546053946104 6.2936965676043295 -0.4013010196728792 -0.18342546053946054 -2.7409070386593464 5.679708407910794" Properties=species:S:1:pos:R:3:initial_magmoms:R:1:castep_labels:S:1 n_minim_iter=11 pbc="T T T"
P        1.05488179       0.18054213       2.54407705       0.00000000 NULL
P        1.01348422       1.37245221       4.31490725       0.00000000 NULL
P        1.20706178       3.00349916       0.60275471       0.00000000 NULL
P        0.86130424       4.23362228       2.43035831       0.00000000 NULL
4
Lattice="2.5168712083177827 0.105094187979517 0.15613926290102423 -0.2134405323477856 6.301086924127779 -0.4483105031985774 -0.21344053234778518 -2.7872407183941736 5.668859489387408" Properties=species:S:1:pos:R:3:initial_magmoms:R:1:castep_labels:S:1 n_minim_iter=12 pbc="T T T"
P        1.07632384       0.14163253       2.48828925       0.00000000 NULL
P        1.01366630       1.36698948       4.30881173       0.00000000 NULL
P        1.20028648       2.98154116       0.55869346       0.00000000 NULL
P        0.88970365       4.22367659       2.40414385       0.00000000 NULL
4
Lattice="2.4448986827821066 0.10180347400423002 0.15125022322720755 -0.2082830392549692 6.261434693809299 -0.49618274367554827 -0.20828303925496874 -2.816665550782124 5.614103393686055" Properties=species:S:1:pos:R:3:initial_magmoms:R:1:castep_labels:S:1 n_minim_iter=13 pbc="T T T"
P        1.04611360       0.11669011       2.44646885       0.00000000 NULL
P        0.98221899       1.32397701       4.24014452       0.00000000 NULL
P        1.16029268       2.95221172       0.52167454       0.00000000 NULL
P        0.86803992       4.17456441       2.33773356       0.00000000 NULL
