8
Lattice="5.12506 -7.850183593624388e-17 -4.6109071083879304e-17 0.17870270340720118 6.039926948953518 7.28041800593002e-16 0.17870270340720118 2.1735453903617232 5.635283310068116" Properties=species:S:1:pos:R:3:initial_magmoms:R:1:castep_labels:S:1 n_minim_iter=1 pbc="T T T"
P        1.66881961       2.47090561       5.02532926       0.00000000 NULL
P        3.81364580       2.63562680       5.13834487       0.00000000 NULL
P        4.53264464       5.88377227       1.41405657       0.00000000 NULL
P        0.94982077       4.77679907       0.65455957       0.00000000 NULL
P        5.26113546       2.28280774       3.67962586       0.00000000 NULL
P        0.22132995       3.95886452       4.82957249       0.00000000 NULL
P        4.48043288       6.70210871       4.90587816       0.00000000 NULL
P        1.00203253       1.22442245       1.14762432       0.00000000 NULL
8
Lattice="5.136155821280127 -0.0016796881057997673 -0.0011524380868034236 0.1771100703069498 6.057912766701742 0.0027664053096555933 0.1771100703069498 2.1825988887551757 5.651068645200744" Properties=species:S:1:pos:R:3:initial_magmoms:R:1:castep_labels:S:1 n_minim_iter=2 pbc="T T T"
P        1.67082385       2.47986686       5.03918028       0.00000000 NULL
P        3.81955211       2.64483853       5.15236774       0.00000000 NULL
P        4.54004111       5.90061409       1.41991106       0.00000000 NULL
P        0.95033485       4.79063568       0.65835219       0.00000000 NULL
P        5.27089775       2.28941337       3.68857236       0.00000000 NULL
P        0.21947822       3.97349989       4.84402821       0.00000000 NULL
P        4.48677225       6.72262211       4.92076295       0.00000000 NULL
P        1.00360372       1.22851248       1.15124099       0.00000000 NULL
8
Lattice="5.451389106880363 -0.0516469536777436 -0.035435100290398494 0.12921490545955186 6.5782047618866315 0.08608016055951272 0.12921490545955183 2.447564822244176 6.1065222610142635" Properties=species:S:1:pos:R:3:initial_magmoms:R:1:castep_labels:S:1 n_minim_iter=3 pbc="T T T"
P        1.72540859       2.74099358       5.43868745       0.00000000 NULL
P        3.98441033       2.91341711       5.55698766       0.00000000 NULL
P        4.74706440       6.38780136       1.59157976       0.00000000 NULL
P        0.96275452       5.19043795       0.77006583       0.00000000 NULL
P        5.54622351       2.48074178       3.94552794       0.00000000 NULL
P        0.16359541       4.40019768       5.26247129       0.00000000 NULL
P        4.66254569       7.31724469       5.35186968       0.00000000 NULL
P        1.04727323       1.34759573       1.25607904       0.00000000 NULL
8
Lattice="5.525337037657662 -0.0852706575144968 -0.05850440511376211 0.09216753044619293 6.749041826637322 0.14625491767851603 0.0921675304461929 2.5651860989708757 6.2442594722106" Properties=species:S:1:pos:R:3:initial_magmoms:R:1:castep_labels:S:1 n_minim_iter=4 pbc="T T T"
P        1.71056591       2.84625571       5.56198787       0.00000000 NULL
P        3.99910620       3.01533189       5.67799144       0.00000000 NULL
P        4.77077630       6.54283978       1.66380402       0.00000000 NULL
P        0.93889580       5.32209441       0.82624765       0.00000000 NULL
P        5.58969981       2.54460371       4.01214779       0.00000000 NULL
P        0.11997229       4.56989411       5.40170445       0.00000000 NULL
P        4.66397839       7.52748575       5.49943574       0.00000000 NULL
P        1.04569372       1.38909252       1.28786924       0.00000000 NULL
8
Lattice="5.522880151864888 -0.11681855802453239 -0.08014949623568761 0.054902392748956294 6.804950402542193 0.19907318786408454 0.054902392748956245 2.6345852402892564 6.2774151309942505" Properties=species:S:1:pos:R:3:initial_magmoms:R:1:castep_labels:S:1 n_minim_iter=5 pbc="T T T"
P        1.67059908       2.89942649       5.59383746       0.00000000 NULL
P        3.96208586       3.06024168       5.70417316       0.00000000 NULL
P        4.73309861       6.58578921       1.70135094       0.00000000 NULL
P        0.89958633       5.36536685       0.86401620       0.00000000 NULL
P        5.55647206       2.56234364       4.01320774       0.00000000 NULL
P        0.07621288       4.65628105       5.44986328       0.00000000 NULL
P        4.60490979       7.60923158       5.55227026       0.00000000 NULL
P        1.02777515       1.40414017       1.29494198       0.00000000 NULL
8
Lattice="5.493595896619582 -0.169343378184225 -0.11618690285035724 -0.008019651549269905 6.876981836233893 0.3020232781252912 -0.008019651549269969 2.756559648640067 6.307572919904281" Properties=species:S:1:pos:R:3:initial_magmoms:R:1:castep_labels:S:1 n_minim_iter=6 pbc="T T T"
P        1.59382370       2.99137004       5.62852200       0.00000000 NULL
P        3.88373290       3.13627478       5.72794149       0.00000000 NULL
P        4.65250208       6.64047914       1.77045907       0.00000000 NULL
P        0.82505451       5.42268876       0.93493013       0.00000000 NULL
P        5.47465145       2.59058264       3.99880453       0.00000000 NULL
P        0.00290515       4.80103817       5.51540343       0.00000000 NULL
P        4.48709313       7.73667917       5.62989626       0.00000000 NULL
P        0.99046346       1.42733207       1.30103790       0.00000000 NULL
8
Lattice="5.466558159324358 -0.20564305703078242 -0.14109220062383118 -0.05174189582589302 7.013791587830935 0.47053743172311097 -0.05174189582589309 2.9630169804520667 6.374575145508393" Properties=species:S:1:pos:R:3:initial_magmoms:R:1:castep_labels:S:1 n_minim_iter=7 pbc="T T T"
P        1.53003521       3.16790914       5.71551647       0.00000000 NULL
P        3.83303916       3.29854602       5.80514675       0.00000000 NULL
P        4.61319084       6.78738107       1.92007746       0.00000000 NULL
P        0.74988353       5.53719688       1.06232305       0.00000000 NULL
P        5.40679624       2.68659811       4.01464165       0.00000000 NULL
P       -0.04372187       5.05867705       5.64213077       0.00000000 NULL
P        4.41221790       8.01072058       5.79690748       0.00000000 NULL
P        0.95085647       1.47985981       1.31606805       0.00000000 NULL
8
Lattice="5.427699639776017 -0.1403902049606534 -0.09632206041833098 0.02380421236030579 7.02621713688537 0.5222490293563754 0.023804212360305672 3.015735664078669 6.3675591640541" Properties=species:S:1:pos:R:3:initial_magmoms:R:1:castep_labels:S:1 n_minim_iter=8 pbc="T T T"
P        1.57711555       3.23963941       5.74397971       0.00000000 NULL
P        3.89819252       3.37657370       5.83793066       0.00000000 NULL
P        4.70019268       6.86354766       2.01110735       0.00000000 NULL
P        0.77511538       5.55525307       1.11348325       0.00000000 NULL
P        5.41950243       2.76480744       4.04137806       0.00000000 NULL
P        0.05580564       5.13598430       5.66824826       0.00000000 NULL
P        4.52290081       8.14026443       5.86209053       0.00000000 NULL
P        0.95240726       1.50282275       1.30812568       0.00000000 NULL
8
Lattice="5.494871175931296 -0.1317315445333725 -0.0903813324804231 0.03635068236446841 7.1588279138329005 0.5706530331642968 0.0363506823644683 3.1086185453597164 6.473866906538812" Properties=species:S:1:pos:R:3:initial_magmoms:R:1:castep_labels:S:1 n_minim_iter=9 pbc="T T T"
P        1.60328695       3.33822427       5.84859258       0.00000000 NULL
P        3.96428560       3.47764463       5.94424923       0.00000000 NULL
P        4.78285624       7.01270767       2.09600709       0.00000000 NULL
P        0.78471631       5.65651634       1.16552093       0.00000000 NULL
P        5.49366602       2.84024379       4.11151746       0.00000000 NULL
P        0.07390653       5.27754945       5.78375879       0.00000000 NULL
P        4.60500214       8.34033045       5.99358215       0.00000000 NULL
P        0.96257040       1.54229637       1.32943446       0.00000000 NULL
8
Lattice="5.450913557970038 -0.13199904727013345 -0.09056486675747312 0.03450269577432141 7.0908491694641596 0.5741368852126526 0.03450269577432131 3.0874059720545692 6.409188674924001" Properties=species:S:1:pos:R:3:initial_magmoms:R:1:castep_labels:S:1 n_minim_iter=10 pbc="T T T"
P        1.58508731       3.31450276       5.79219578       0.00000000 NULL
P        3.93483164       3.44934081       5.88470850       0.00000000 NULL
P        4.74750269       6.94674451       2.08237186       0.00000000 NULL
P        0.77241627       5.60351695       1.16078017       0.00000000 NULL
P        5.44739477       2.81404971       4.07074565       0.00000000 NULL
P        0.07252418       5.23555722       5.73214783       0.00000000 NULL
P        4.56857140       8.27196884       5.94014136       0.00000000 NULL
P        0.95134755       1.52729889       1.31260694       0.00000000 NULL
