14
Lattice="4.20624 9.11283049101483e-16 1.4092063651717606e-16 1.3857516833283303 5.491669690381304 -3.3556073503739934e-16 0.10748983658917399 0.9398272332265017 13.768412525182997" Properties=species:S:1:pos:R:3:initial_magmoms:R:1:castep_labels:S:1 n_minim_iter=1 pbc="T T T"
P        3.60943612       3.30469191       9.59966490       0.00000000 NULL
P        2.71025805       3.35534072       2.33728991       0.00000000 NULL
P        3.45678205       1.31239148       9.21142320       0.00000000 NULL
P        1.81577784       5.15037463       2.61229881       0.00000000 NULL
P        2.21361913       1.72892946       1.26619967       0.00000000 NULL
P        3.07613983       2.46646306      12.53792950       0.00000000 NULL
P        2.50828627       4.85826924       0.73779002       0.00000000 NULL
P        3.75023876       5.64481630       7.93260341       0.00000000 NULL
P        2.11581573       5.36985689       4.59265639       0.00000000 NULL
P        1.43698169       4.84888773       9.85217070       0.00000000 NULL
P        3.64912467       1.19768241       5.95675773       0.00000000 NULL
P        0.37573157       1.10570402      12.69521984       0.00000000 NULL
P        4.68541286       4.54516058       5.54299215       0.00000000 NULL
P        3.55925118       3.13426473       6.51856542       0.00000000 NULL
14
Lattice="4.205564060847158 0.0003092178312644129 -0.00038692896221109897 1.3859327092262352 5.499232532815261 0.0027311405238311798 0.10627510732504923 0.9482789444290971 13.784404040184516" Properties=species:S:1:pos:R:3:initial_magmoms:R:1:castep_labels:S:1 n_minim_iter=2 pbc="T T T"
P        3.60825519       3.31465223       9.61191426       0.00000000 NULL
P        2.71007363       3.36123788       2.34153964       0.00000000 NULL
P        3.45555566       1.31914220       9.22228171       0.00000000 NULL
P        1.81526601       5.15901779       2.61776837       0.00000000 NULL
P        2.21324810       1.73192821       1.26810167       0.00000000 NULL
P        3.07457254       2.47665675      12.55317848       0.00000000 NULL
P        2.50833055       4.86546110       0.74069746       0.00000000 NULL
P        3.74920603       5.65688464       7.94407104       0.00000000 NULL
P        2.11566682       5.37983792       4.60060146       0.00000000 NULL
P        1.43617495       4.86063880       9.86563545       0.00000000 NULL
P        3.64808583       1.20259087       5.96372324       0.00000000 NULL
P        0.37464340       1.11378833      12.70999101       0.00000000 NULL
P        4.68441711       4.55446123       5.55110178       0.00000000 NULL
P        3.55822176       3.14221694       6.52733814       0.00000000 NULL
14
Lattice="4.188180447920002 0.007127006112771817 -0.009149795287247915 1.3891069623322998 5.665529296261987 0.06470282168624593 0.07867045873588457 1.1391382541653416 14.138202060150926" Properties=species:S:1:pos:R:3:initial_magmoms:R:1:castep_labels:S:1 n_minim_iter=3 pbc="T T T"
P        3.57957660       3.53737468       9.88360529       0.00000000 NULL
P        2.70427808       3.49169645       2.43638101       0.00000000 NULL
P        3.42595507       1.47091768       9.46260532       0.00000000 NULL
P        1.80271106       5.35013179       2.74020785       0.00000000 NULL
P        2.20371770       1.79815638       1.31034384       0.00000000 NULL
P        3.03749014       2.70550728      12.89105661       0.00000000 NULL
P        2.50782761       5.02384618       0.80617844       0.00000000 NULL
P        3.72382581       5.92516140       8.19908075       0.00000000 NULL
P        2.11094647       5.60121736       4.77790407       0.00000000 NULL
P        1.41696740       5.12252827      10.16461260       0.00000000 NULL
P        3.62269266       1.31263131       6.11787325       0.00000000 NULL
P        0.34973738       1.29611544      13.03677200       0.00000000 NULL
P        4.65935051       4.76087961       5.73144186       0.00000000 NULL
P        3.53305344       3.31946469       6.72216560       0.00000000 NULL
14
Lattice="4.122539815835075 0.010321315123278786 -0.017179925782665122 1.371652055709829 5.683794491595749 0.09749309075907361 0.05142147829042002 1.231008341644524 14.215828457521043" Properties=species:S:1:pos:R:3:initial_magmoms:R:1:castep_labels:S:1 n_minim_iter=4 pbc="T T T"
P        3.50821368       3.61599710       9.94873584       0.00000000 NULL
P        2.66326401       3.51738451       2.46608892       0.00000000 NULL
P        3.35634992       1.53564722       9.51427061       0.00000000 NULL
P        1.76714126       5.38655442       2.78355070       0.00000000 NULL
P        2.16810319       1.81126324       1.31973319       0.00000000 NULL
P        2.96565012       2.79814787      12.97002077       0.00000000 NULL
P        2.47372941       5.04611950       0.83326763       0.00000000 NULL
P        3.65376979       5.99758125       8.26893537       0.00000000 NULL
P        2.07764120       5.65262027       4.83522921       0.00000000 NULL
P        1.37843406       5.20082066      10.24306193       0.00000000 NULL
P        3.55517801       1.35611314       6.14978437       0.00000000 NULL
P        0.32138207       1.38099729      13.10795794       0.00000000 NULL
P        4.57720796       4.81267924       5.77942445       0.00000000 NULL
P        3.46601917       3.37354292       6.77204284       0.00000000 NULL
14
Lattice="3.9341031584961907 0.013215655212543006 -0.04717344216202788 1.3133501862572396 5.712161041041473 0.16504763768882774 -0.050925975126063096 1.4299168493997596 14.369312695656335" Properties=species:S:1:pos:R:3:initial_magmoms:R:1:castep_labels:S:1 n_minim_iter=5 pbc="T T T"
P        3.28234347       3.78075544      10.07008715       0.00000000 NULL
P        2.53530154       3.56248476       2.52013864       0.00000000 NULL
P        3.13858405       1.67143028       9.60741782       0.00000000 NULL
P        1.65522569       5.45600336       2.87002557       0.00000000 NULL
P        2.06157371       1.83370495       1.32961366       0.00000000 NULL
P        2.73344386       2.99583153      13.12227709       0.00000000 NULL
P        2.36682210       5.08329428       0.88336915       0.00000000 NULL
P        3.43189637       6.14212755       8.40099345       0.00000000 NULL
P        1.96675988       5.75644216       4.94855760       0.00000000 NULL
P        1.24486470       5.35939125      10.39767876       0.00000000 NULL
P        3.34948633       1.44518026       6.20284277       0.00000000 NULL
P        0.21894842       1.56221597      13.24581647       0.00000000 NULL
P        4.32445566       4.91154059       5.86322186       0.00000000 NULL
P        3.25821191       3.48030046       6.86531900       0.00000000 NULL
14
Lattice="3.764487500153142 0.013098270963485708 -0.1069683835123954 1.2573168121296252 5.775376588577417 0.16282194928720342 -0.25101529474245643 1.4845484290890691 14.520045984296967" Properties=species:S:1:pos:R:3:initial_magmoms:R:1:castep_labels:S:1 n_minim_iter=6 pbc="T T T"
P        3.00129731       3.86203445      10.13591398       0.00000000 NULL
P        2.39859057       3.59928404       2.51833212       0.00000000 NULL
P        2.86876041       1.71645311       9.66837539       0.00000000 NULL
P        1.53206603       5.52971630       2.88873079       0.00000000 NULL
P        1.95579451       1.85271378       1.30520337       0.00000000 NULL
P        2.41762194       3.07733557      13.23694571       0.00000000 NULL
P        2.26243453       5.14170590       0.86708375       0.00000000 NULL
P        3.16824167       6.23300629       8.44895680       0.00000000 NULL
P        1.83323274       5.84915658       4.98326092       0.00000000 NULL
P        1.04587020       5.43686472      10.49460835       0.00000000 NULL
P        3.11634857       1.47644551       6.22364361       0.00000000 NULL
P        0.03354547       1.60613583      13.37131289       0.00000000 NULL
P        4.04621512       4.97504266       5.86808076       0.00000000 NULL
P        3.01616045       3.52766141       6.90667426       0.00000000 NULL
14
Lattice="3.5676625869332255 0.03187149361993561 -0.19018783598485972 1.2169828994279925 5.774930921953917 0.12537462710483094 -0.5242552533780787 1.4587453873107838 14.57207541331069" Properties=species:S:1:pos:R:3:initial_magmoms:R:1:castep_labels:S:1 n_minim_iter=7 pbc="T T T"
P        2.65743266       3.87453465      10.09996986       0.00000000 NULL
P        2.24473576       3.59175791       2.46659235       0.00000000 NULL
P        2.53059267       1.72041412       9.64581387       0.00000000 NULL
P        1.40670866       5.53180009       2.85060016       0.00000000 NULL
P        1.83909903       1.85353387       1.24708108       0.00000000 NULL
P        2.01329835       3.08628710      13.24850618       0.00000000 NULL
P        2.15993525       5.14435342       0.81418430       0.00000000 NULL
P        2.86376058       6.22688968       8.38966112       0.00000000 NULL
P        1.69091778       5.87037295       4.94040956       0.00000000 NULL
P        0.80492047       5.40288720      10.48932148       0.00000000 NULL
P        2.83108213       1.48062273       6.18402392       0.00000000 NULL
P       -0.21174947       1.56818521      13.39213857       0.00000000 NULL
P        3.72231310       4.97007541       5.78692636       0.00000000 NULL
P        2.72605706       3.51082769       6.87418746       0.00000000 NULL
14
Lattice="3.5825065649232295 0.04687054549672553 -0.23375042580895708 1.2414560407758854 5.890940380200887 0.13799206514037538 -0.6631193251306733 1.5457521998368189 14.780271701687033" Properties=species:S:1:pos:R:3:initial_magmoms:R:1:castep_labels:S:1 n_minim_iter=8 pbc="T T T"
P        2.58206467       4.00884505      10.22245337       0.00000000 NULL
P        2.24386298       3.67567763       2.48922870       0.00000000 NULL
P        2.45181913       1.81145725       9.75985601       0.00000000 NULL
P        1.39954670       5.65773719       2.89348152       0.00000000 NULL
P        1.84268826       1.89946907       1.24367997       0.00000000 NULL
P        1.88990373       3.21978358      13.42911259       0.00000000 NULL
P        2.18157332       5.25388370       0.82658878       0.00000000 NULL
P        2.81595628       6.39098144       8.49039606       0.00000000 NULL
P        1.67999803       6.02253222       5.00843141       0.00000000 NULL
P        0.72523925       5.54582235      10.64162931       0.00000000 NULL
P        2.78602272       1.54728075       6.24681960       0.00000000 NULL
P       -0.32756837       1.64598983      13.56871412       0.00000000 NULL
P        3.69220462       5.09893830       5.84137464       0.00000000 NULL
P        2.67800709       3.61316158       6.95870409       0.00000000 NULL
14
Lattice="3.546480250781354 0.05338225261616197 -0.24569149632071574 1.238088809984073 5.820942161852444 0.13526907357612927 -0.7016720866784207 1.5366083702281181 14.65399030477429" Properties=species:S:1:pos:R:3:initial_magmoms:R:1:castep_labels:S:1 n_minim_iter=9 pbc="T T T"
P        2.52880211       3.97492226      10.12501632       0.00000000 NULL
P        2.21925948       3.63557007       2.45995932       0.00000000 NULL
P        2.39763209       1.80297018       9.66699969       0.00000000 NULL
P        1.38388236       5.59307887       2.86427848       0.00000000 NULL
P        1.82392443       1.88024087       1.22431053       0.00000000 NULL
P        1.82812541       3.19583382      13.31061584       0.00000000 NULL
P        2.16599086       5.19375567       0.81588600       0.00000000 NULL
P        2.77130673       6.32446543       8.40687344       0.00000000 NULL
P        1.65925512       5.95940577       4.96027075       0.00000000 NULL
P        0.69223540       5.48424820      10.54683471       0.00000000 NULL
P        2.73937117       1.53872985       6.18479820       0.00000000 NULL
P       -0.36244693       1.63453664      13.44798189       0.00000000 NULL
P        3.64232030       5.04612683       5.77763425       0.00000000 NULL
P        2.63283202       3.57727693       6.89139380       0.00000000 NULL
14
Lattice="3.5374079589287093 0.059764029736535475 -0.2600670337559241 1.2434319830498695 5.8228386030417445 0.13896583145677638 -0.7475338874586351 1.55787844392143 14.661044570607652" Properties=species:S:1:pos:R:3:initial_magmoms:R:1:castep_labels:S:1 n_minim_iter=10 pbc="T T T"
P        2.49299862       3.99729452      10.12213320       0.00000000 NULL
P        2.21089873       3.64153915       2.45640774       0.00000000 NULL
P        2.36030522       1.82467330       9.66311344       0.00000000 NULL
P        1.37748798       5.60012921       2.86592860       0.00000000 NULL
P        1.81868425       1.88451342       1.21740739       0.00000000 NULL
P        1.77781879       3.22226359      13.31458974       0.00000000 NULL
P        2.16633792       5.19808972       0.81702155       0.00000000 NULL
P        2.74556553       6.34166364       8.40394140       0.00000000 NULL
P        1.64987000       5.97381622       4.96199707       0.00000000 NULL
P        0.66270218       5.49838180      10.55237862       0.00000000 NULL
P        2.71269933       1.55338922       6.17942431       0.00000000 NULL
P       -0.40158192       1.65290699      13.44887740       0.00000000 NULL
P        3.61903003       5.05922755       5.77013358       0.00000000 NULL
P        2.60614434       3.59092683       6.88976364       0.00000000 NULL
14
Lattice="3.476194493623344 0.10454480976637362 -0.36288577594404425 1.2817309364648428 5.831839549160872 0.16597205379484803 -1.0756522274848739 1.7106734009671785 14.707368552314316" Properties=species:S:1:pos:R:3:initial_magmoms:R:1:castep_labels:S:1 n_minim_iter=11 pbc="T T T"
P        2.23949238       4.15436530      10.09903593       0.00000000 NULL
P        2.15244788       3.68117208       2.43041155       0.00000000 NULL
P        2.09559038       1.97920399       9.63240177       0.00000000 NULL
P        1.33290966       5.64637448       2.87755155       0.00000000 NULL
P        1.78336785       1.91299690       1.16784974       0.00000000 NULL
P        1.42012922       3.40878251      13.34058425       0.00000000 NULL
P        2.16940531       5.22524741       0.82575652       0.00000000 NULL
P        2.56432846       6.46075848       8.38049972       0.00000000 NULL
P        1.58246192       6.07256898       4.97358792       0.00000000 NULL
P        0.45164049       5.59638068      10.58952288       0.00000000 NULL
P        2.52439008       1.65716150       6.13987766       0.00000000 NULL
P       -0.68133544       1.78585009      13.45032051       0.00000000 NULL
P        3.45715852       5.14853326       5.71498886       0.00000000 NULL
P        2.41715666       3.68710629       6.87645986       0.00000000 NULL
14
Lattice="3.4616854929553162 0.14514647086507554 -0.49453343896603935 1.3299604810309535 5.866360565576866 0.19638463588619742 -1.4978773871902717 1.90031703176125 14.878500686987802" Properties=species:S:1:pos:R:3:initial_magmoms:R:1:castep_labels:S:1 n_minim_iter=12 pbc="T T T"
P        1.95601484       4.34526642      10.14495274       0.00000000 NULL
P        2.10430884       3.73464858       2.41460631       0.00000000 NULL
P        1.80112534       2.16148429       9.66355839       0.00000000 NULL
P        1.28361251       5.72627463       2.90807838       0.00000000 NULL
P        1.76777028       1.94505176       1.11587527       0.00000000 NULL
P        0.99916843       3.62769672      13.47325599       0.00000000 NULL
P        2.19102126       5.27683102       0.84220087       0.00000000 NULL
P        2.37047156       6.62655059       8.40658561       0.00000000 NULL
P        1.49639950       6.21379231       5.02232759       0.00000000 NULL
P        0.18364032       5.73570801      10.71736280       0.00000000 NULL
P        2.33272179       1.77610728       6.14121131       0.00000000 NULL
P       -1.03927586       1.96169610      13.55427346       0.00000000 NULL
P        3.31533940       5.25836615       5.68434570       0.00000000 NULL
P        2.21552544       3.81596030       6.91043927       0.00000000 NULL
14
Lattice="3.4105589596574455 0.14658164213305275 -0.5092472545600313 1.3149905332801375 5.768598835091023 0.19198869473565064 -1.5470264259006616 1.8846742442614655 14.739100826612784" Properties=species:S:1:pos:R:3:initial_magmoms:R:1:castep_labels:S:1 n_minim_iter=13 pbc="T T T"
P        1.87867748       4.28922399      10.03564453       0.00000000 NULL
P        2.06415657       3.67240854       2.38148822       0.00000000 NULL
P        1.72534450       2.14215603       9.55898930       0.00000000 NULL
P        1.25281445       5.63693455       2.87189334       0.00000000 NULL
P        1.74070938       1.91173703       1.09200136       0.00000000 NULL
P        0.91106230       3.58231066      13.34444251       0.00000000 NULL
P        2.16022215       5.19179531       0.83200033       0.00000000 NULL
P        2.30284967       6.53016415       8.30707014       0.00000000 NULL
P        1.45532976       6.12535691       4.96554439       0.00000000 NULL
P        0.13318508       5.64647960      10.61281438       0.00000000 NULL
P        2.26655714       1.75647573       6.07714266       0.00000000 NULL
P       -1.08305466       1.94768796      13.41757532       0.00000000 NULL
P        3.24490238       5.17167084       5.60961766       0.00000000 NULL
P        2.14817914       3.76281314       6.83716093       0.00000000 NULL
14
Lattice="3.431121766035199 0.14545350831735016 -0.5209930516406436 1.3202920865128398 5.8214268960485445 0.20108127335723935 -1.5852008852344799 1.9262480862786908 14.865637424152316" Properties=species:S:1:pos:R:3:initial_magmoms:R:1:castep_labels:S:1 n_minim_iter=14 pbc="T T T"
P        1.86811388       4.34456824      10.12057440       0.00000000 NULL
P        2.07038553       3.70664063       2.40331693       0.00000000 NULL
P        1.71527910       2.17822798       9.63740772       0.00000000 NULL
P        1.25126399       5.69446754       2.90108916       0.00000000 NULL
P        1.74935522       1.92846783       1.09856505       0.00000000 NULL
P        0.88548882       3.63637485      13.46068809       0.00000000 NULL
P        2.17014230       5.24028128       0.84518805       0.00000000 NULL
P        2.29906118       6.60290679       8.37744411       0.00000000 NULL
P        1.45185934       6.19309887       5.01251943       0.00000000 NULL
P        0.11144294       5.71323806      10.70933409       0.00000000 NULL
P        2.26686510       1.78066022       6.12763191       0.00000000 NULL
P       -1.11347438       1.98796263      13.52821589       0.00000000 NULL
P        3.25279102       5.22276377       5.65554538       0.00000000 NULL
P        2.14474311       3.80804028       6.89761956       0.00000000 NULL
14
Lattice="3.427326428885165 0.14575112797103734 -0.5286395823117643 1.3194302797654751 5.8171447643671605 0.20326031638057454 -1.610260995399577 1.9372851582588888 14.873245455311357" Properties=species:S:1:pos:R:3:initial_magmoms:R:1:castep_labels:S:1 n_minim_iter=15 pbc="T T T"
P        1.84717132       4.35110774      10.12184850       0.00000000 NULL
P        2.06400084       3.70433637       2.40259091       0.00000000 NULL
P        1.69474170       2.18659011       9.63744842       0.00000000 NULL
P        1.24432195       5.69388605       2.90215694       0.00000000 NULL
P        1.74668490       1.92664655       1.09489714       0.00000000 NULL
P        0.85660552       3.64491129      13.46732175       0.00000000 NULL
P        2.16739043       5.23768621       0.84704090       0.00000000 NULL
P        2.28310416       6.60627892       8.37633853       0.00000000 NULL
P        1.44187617       6.19623861       5.01422131       0.00000000 NULL
P        0.09259738       5.71609306      10.71587711       0.00000000 NULL
P        2.25223323       1.78489682       6.12861018       0.00000000 NULL
P       -1.13450846       1.99901845      13.53147349       0.00000000 NULL
P        3.24048796       5.22070746       5.65235300       0.00000000 NULL
P        2.12870686       3.81194349       6.89967660       0.00000000 NULL
14
Lattice="3.419465386427421 0.1465914471761487 -0.54790912510649 1.317937569575475 5.810294859806533 0.2091202828142212 -1.6733497020984476 1.9666950732445858 14.89936259291477" Properties=species:S:1:pos:R:3:initial_magmoms:R:1:castep_labels:S:1 n_minim_iter=16 pbc="T T T"
P        1.79589967       4.37062446      10.13011502       0.00000000 NULL
P        2.04906174       3.70110397       2.40223743       0.00000000 NULL
P        1.64444162       2.20923602       9.64219639       0.00000000 NULL
P        1.22768388       5.69633215       2.90657107       0.00000000 NULL
P        1.74088472       1.92335648       1.08634722       0.00000000 NULL
P        0.78516390       3.66911398      13.49044268       0.00000000 NULL
P        2.16157389       5.23479334       0.85227109       0.00000000 NULL
P        2.24454992       6.61942607       8.37778293       0.00000000 NULL
P        1.41771303       6.20830194       5.02115088       0.00000000 NULL
P        0.04582737       5.72751567      10.73770366       0.00000000 NULL
P        2.21678055       1.79690040       6.13422417       0.00000000 NULL
P       -1.18737668       2.02847663      13.54617267       0.00000000 NULL
P        3.21151878       5.21915559       5.64724794       0.00000000 NULL
P        2.08977748       3.82464124       6.90841721       0.00000000 NULL
14
Lattice="3.3861303134359346 0.15125394973067394 -0.6336935173131063 1.313042649278059 5.784944406432013 0.23494434081874532 -1.9539604458495423 2.0978140104989484 15.02240458624701" Properties=species:S:1:pos:R:3:initial_magmoms:R:1:castep_labels:S:1 n_minim_iter=17 pbc="T T T"
P        1.56932450       4.46003356      10.17196803       0.00000000 NULL
P        1.98391455       3.68972120       2.40238705       0.00000000 NULL
P        1.42227359       2.31068315       9.66696239       0.00000000 NULL
P        1.15588240       5.71231123       2.92766717       0.00000000 NULL
P        1.71680792       1.90971876       1.04772399       0.00000000 NULL
P        0.46859165       3.77824269      13.60021573       0.00000000 NULL
P        2.13743220       5.22792139       0.87503934       0.00000000 NULL
P        2.07672003       6.68411457       8.38570108       0.00000000 NULL
P        1.31218413       6.26671286       5.05335438       0.00000000 NULL
P       -0.16043901       5.78337226      10.84045844       0.00000000 NULL
P        2.05905711       1.85222959       6.16475759       0.00000000 NULL
P       -1.42232569       2.16066564      13.61823258       0.00000000 NULL
P        3.08658528       5.21535066       5.62477143       0.00000000 NULL
P        1.91800583       3.88608435       6.95182679       0.00000000 NULL
14
Lattice="3.3353863809862623 0.15613840989606326 -0.74774161817197 1.302702143751352 5.792910510483772 0.24933954461257166 -2.3274829287945034 2.2293193297765352 15.2457705930764" Properties=species:S:1:pos:R:3:initial_magmoms:R:1:castep_labels:S:1 n_minim_iter=18 pbc="T T T"
P        1.25391673       4.56432833      10.26328904       0.00000000 NULL
P        1.88979817       3.67433124       2.40971135       0.00000000 NULL
P        1.11977327       2.41930463       9.72782021       0.00000000 NULL
P        1.05105239       5.77399945       2.94372914       0.00000000 NULL
P        1.69072745       1.88677423       0.98195487       0.00000000 NULL
P        0.02785517       3.88529268      13.80999684       0.00000000 NULL
P        2.10380187       5.26243942       0.89452142       0.00000000 NULL
P        1.85891834       6.79827994       8.38137499       0.00000000 NULL
P        1.16332022       6.38439053       5.08314941       0.00000000 NULL
P       -0.43492214       5.85676069      11.01483715       0.00000000 NULL
P        1.83084609       1.91274649       6.26916209       0.00000000 NULL
P       -1.73115410       2.31128673      13.76241169       0.00000000 NULL
P        2.92882019       5.19048675       5.58274380       0.00000000 NULL
P        1.67893297       3.98244645       7.04736655       0.00000000 NULL
14
Lattice="3.250171296304337 0.17744707858175526 -0.6689796138765859 1.3024485260121583 5.4051675196263895 0.3172120912639727 -2.067085405577502 2.267415618057575 14.618063669806784" Properties=species:S:1:pos:R:3:initial_magmoms:R:1:castep_labels:S:1 n_minim_iter=19 pbc="T T T"
P        1.36131071       4.40220426       9.91795102       0.00000000 NULL
P        1.89592185       3.44732944       2.38334804       0.00000000 NULL
P        1.22595432       2.40478177       9.35485604       0.00000000 NULL
P        1.07422165       5.43977684       2.87996648       0.00000000 NULL
P        1.69605169       1.77262632       0.95916329       0.00000000 NULL
P        0.18649273       3.79928845      13.32513673       0.00000000 NULL
P        2.10323347       4.93973352       0.95764515       0.00000000 NULL
P        1.98097935       6.49901674       8.08480138       0.00000000 NULL
P        1.22511469       6.05025844       4.93648744       0.00000000 NULL
P       -0.24893224       5.59529938      10.63850073       0.00000000 NULL
P        1.85616646       1.90284280       6.14221003       0.00000000 NULL
P       -1.49497813       2.35117034      13.19662174       0.00000000 NULL
P        2.98367927       4.88153660       5.41210989       0.00000000 NULL
P        1.75174423       3.86002718       6.85181381       0.00000000 NULL
14
Lattice="3.3875990974162136 0.18554271848707912 -0.7213841077550571 1.3582939811024815 5.735585339683345 0.3368553068314763 -2.2333018114778858 2.416246318023721 15.367992680866013" Properties=species:S:1:pos:R:3:initial_magmoms:R:1:castep_labels:S:1 n_minim_iter=20 pbc="T T T"
P        1.36420014       4.67716984      10.41723376       0.00000000 NULL
P        1.96248844       3.65475611       2.50144638       0.00000000 NULL
P        1.22405941       2.55822570       9.82269707       0.00000000 NULL
P        1.10455719       5.77531109       3.03115353       0.00000000 NULL
P        1.76205817       1.88142033       1.00073417       0.00000000 NULL
P        0.12032043       4.04209893      14.00075211       0.00000000 NULL
P        2.18965865       5.24117427       1.00122336       0.00000000 NULL
P        2.02061659       6.89886882       8.49048723       0.00000000 NULL
P        1.25186556       6.42586923       5.18863548       0.00000000 NULL
P       -0.31574581       5.94333846      11.18876225       0.00000000 NULL
P        1.90017897       2.01994296       6.44112605       0.00000000 NULL
P       -1.62860633       2.50123894      13.86807871       0.00000000 NULL
P        3.08152554       5.17927150       5.67228129       0.00000000 NULL
P        1.78657040       4.10249816       7.19824752       0.00000000 NULL
14
Lattice="3.364707731456463 0.1878797988872294 -0.7215291055361234 1.3538036820907942 5.712171363000964 0.32509160662635317 -2.2338392336518456 2.3827937419670495 15.309864391643531" Properties=species:S:1:pos:R:3:initial_magmoms:R:1:castep_labels:S:1 n_minim_iter=21 pbc="T T T"
P        1.34615525       4.64373182      10.37082509       0.00000000 NULL
P        1.94918014       3.63619536       2.48514624       0.00000000 NULL
P        1.20570923       2.53397114       9.78054902       0.00000000 NULL
P        1.09792700       5.74825427       3.00965789       0.00000000 NULL
P        1.75090452       1.87253921       0.99188299       0.00000000 NULL
P        0.10518264       4.00478957      13.94380002       0.00000000 NULL
P        2.17850619       5.21980237       0.98757572       0.00000000 NULL
P        2.00273948       6.86027879       8.44654752       0.00000000 NULL
P        1.24304483       6.39265855       5.15675162       0.00000000 NULL
P       -0.32148480       5.90181944      11.13926133       0.00000000 NULL
P        1.88080745       2.00424714       6.41500170       0.00000000 NULL
P       -1.63146684       2.47082704      13.81552517       0.00000000 NULL
P        3.05878600       5.14996514       5.63902831       0.00000000 NULL
P        1.76924308       4.07729359       7.16499433       0.00000000 NULL
14
Lattice="3.3557016222712717 0.19017225031496673 -0.7258503847979036 1.3538296328351056 5.716140150440995 0.3165412245636062 -2.2477021402940416 2.3655345325360018 15.311923807050974" Properties=species:S:1:pos:R:3:initial_magmoms:R:1:castep_labels:S:1 n_minim_iter=22 pbc="T T T"
P        1.33024957       4.63517757      10.36527157       0.00000000 NULL
P        1.94261897       3.63512025       2.47919523       0.00000000 NULL
P        1.18935806       2.52454618       9.77618733       0.00000000 NULL
P        1.09394283       5.74967314       3.00183496       0.00000000 NULL
P        1.74639410       1.87273615       0.98685958       0.00000000 NULL
P        0.08619277       3.99083433      13.94166186       0.00000000 NULL
P        2.17528236       5.22329551       0.97889304       0.00000000 NULL
P        1.98982840       6.85660058       8.43658148       0.00000000 NULL
P        1.23689091       6.39171983       5.14670252       0.00000000 NULL
P       -0.33233287       5.89187304      11.13523867       0.00000000 NULL
P        1.86722669       1.99954886       6.41329846       0.00000000 NULL
P       -1.64476208       2.45623564      13.81689857       0.00000000 NULL
P        3.04649411       5.14600693       5.62772536       0.00000000 NULL
P        1.75670566       4.07373737       7.16034811       0.00000000 NULL
14
Lattice="3.341672680037071 0.19348331405026042 -0.736206050084905 1.353530705061617 5.730592667591588 0.30197391427619885 -2.2812183477579873 2.339937060924748 15.33486069524657" Properties=species:S:1:pos:R:3:initial_magmoms:R:1:castep_labels:S:1 n_minim_iter=23 pbc="T T T"
P        1.29674793       4.62654852      10.36740335       0.00000000 NULL
P        1.93031509       3.63680060       2.47121870       0.00000000 NULL
P        1.15556475       2.51168450       9.77864647       0.00000000 NULL
P        1.08446216       5.76035885       2.99171408       0.00000000 NULL
P        1.73900819       1.87502114       0.97794377       0.00000000 NULL
P        0.04411760       3.97243087      13.95523612       0.00000000 NULL
P        2.16980436       5.23603832       0.96447271       0.00000000 NULL
P        1.96291104       6.86010451       8.42806696       0.00000000 NULL
P        1.22298315       6.39909490       5.13431804       0.00000000 NULL
P       -0.35825731       5.88279925      11.14319313       0.00000000 NULL
P        1.84050205       1.99446985       6.41846855       0.00000000 NULL
P       -1.67617819       2.43547038      13.83666063       0.00000000 NULL
P        3.02346714       5.14391274       5.61168346       0.00000000 NULL
P        1.73148365       4.07423088       7.16087536       0.00000000 NULL
