12
Lattice="3.054304632523004 0.0 0.0 0.0 9.127982176822814 0.0 0.0 0.0 10.093831454768372" Properties=species:S:1:pos:R:3:initial_magmoms:R:1:castep_labels:S:1:forces:R:3 n_minim_iter=1 energy=-61.420384978675 stress="-0.0018139926556206734 0.0 -0.0 0.0 0.0012546711464632254 -0.0 -0.0 -0.0 0.0018199980771611821" free_energy=-61.420384978675 pbc="T T T"
P        0.87674700       2.19477262       6.21714614       0.00000000 NULL      -0.08781200      -0.40503400       0.61648500
P        0.87674700       6.93320956       3.87668531       0.00000000 NULL      -0.08781200       0.40503400      -0.61648500
P        2.40389932       6.75876371       8.92360104       0.00000000 NULL      -0.08781200      -0.40503300      -0.61648500
P        2.40389932       2.36921847       1.17023042       0.00000000 NULL      -0.08781200       0.40503300       0.61648500
P        2.87696707       0.65172605       7.53326521       0.00000000 NULL      -0.42060200       0.46711600      -0.39067700
P        2.87696707       8.47625612       2.56056625       0.00000000 NULL      -0.42060200      -0.46711600       0.39067700
P        1.34981475       5.21571714       7.60748198       0.00000000 NULL      -0.42060500       0.46711400       0.39067700
P        1.34981475       3.91226504       2.48634948       0.00000000 NULL      -0.42060500      -0.46711400      -0.39067700
P        2.73759773       6.66965847       6.74460161       0.00000000 NULL       0.50841700      -0.07554000       0.17956800
P        2.73759773       2.45832370       3.34922985       0.00000000 NULL       0.50841700       0.07554000      -0.17956800
P        1.21044542       2.10566738       8.39614558       0.00000000 NULL       0.50841500      -0.07554100      -0.17956900
P        1.21044542       7.02231479       1.69768588       0.00000000 NULL       0.50841500       0.07554100       0.17956900
12
Lattice="3.0982958940634857 0.0 0.0 0.0 9.03814248882718 0.0 0.0 0.0 9.95004276623637" Properties=species:S:1:pos:R:3:initial_magmoms:R:1:castep_labels:S:1:forces:R:3 n_minim_iter=2 energy=-61.515530521472 stress="-0.007480508497635527 -0.0 0.0 -0.0 -0.004679333000310513 -0.0 0.0 -0.0 -0.01920920390467245" free_energy=-61.515530521472 pbc="T T T"
P        0.88687948       2.16193646       6.14560548       0.00000000 NULL      -0.03060300      -0.19709900      -0.03321700
P        0.88687948       6.87620603       3.80443729       0.00000000 NULL      -0.03060300       0.19709900       0.03321700
P        2.43602742       6.68100771       8.77945867       0.00000000 NULL      -0.03060300      -0.19709900       0.03321800
P        2.43602742       2.35713478       1.17058410       0.00000000 NULL      -0.03060300       0.19709900      -0.03321800
P        2.90645188       0.65826832       7.41516400       0.00000000 NULL      -0.43195500       0.23772600      -0.24923900
P        2.90645188       8.37987417       2.53487876       0.00000000 NULL      -0.43195500      -0.23772600       0.24923900
P        1.35730393       5.17733957       7.50990015       0.00000000 NULL      -0.43195600       0.23772500       0.24923900
P        1.35730393       3.86080292       2.44014262       0.00000000 NULL      -0.43195600      -0.23772500      -0.24923900
P        2.79147507       6.60191885       6.65348205       0.00000000 NULL       0.46255900      -0.06608500      -0.33127300
P        2.79147507       2.43622364       3.29656071       0.00000000 NULL       0.46255900       0.06608500       0.33127300
P        1.24232712       2.08284760       8.27158210       0.00000000 NULL       0.46255900      -0.06608500       0.33127300
P        1.24232712       6.95529489       1.67846067       0.00000000 NULL       0.46255900       0.06608500      -0.33127300
12
Lattice="3.2247397481773143 0.0 0.0 0.0 8.974566436479376 0.0 0.0 0.0 10.107883686724538" Properties=species:S:1:pos:R:3:initial_magmoms:R:1:castep_labels:S:1:forces:R:3 n_minim_iter=3 energy=-61.67733768024 stress="0.008541966690210413 -0.0 0.0 -0.0 -0.0011217362741371335 -0.0 0.0 -0.0 -0.005744189464507804" free_energy=-61.67733768024 pbc="T T T"
P        0.91840439       2.12628928       6.27230275       0.00000000 NULL       0.00966600      -0.12074700      -0.00888200
P        0.91840439       6.84827716       3.83558093       0.00000000 NULL       0.00966600       0.12074700       0.00888200
P        2.53077426       6.61357249       8.88952278       0.00000000 NULL       0.00966600      -0.12074600       0.00888300
P        2.53077426       2.36099394       1.21836091       0.00000000 NULL       0.00966600       0.12074600      -0.00888300
P        3.00040705       0.67728665       7.51228132       0.00000000 NULL      -0.22943400       0.37747700      -0.02718500
P        3.00040705       8.29727979       2.59560236       0.00000000 NULL      -0.22943400      -0.37747700       0.02718500
P        1.38803717       5.16456987       7.64954421       0.00000000 NULL      -0.22943500       0.37747600       0.02718400
P        1.38803717       3.80999657       2.45833948       0.00000000 NULL      -0.22943500      -0.37747600      -0.02718400
P        2.93472607       6.55145328       6.76515312       0.00000000 NULL       0.21976900      -0.26177300      -0.08469500
P        2.93472607       2.42311315       3.34273057       0.00000000 NULL       0.21976900       0.26177300       0.08469500
P        1.32235620       2.06417007       8.39667241       0.00000000 NULL       0.21976800      -0.26177300       0.08469500
P        1.32235620       6.91039637       1.71121128       0.00000000 NULL       0.21976800       0.26177300      -0.08469500
12
Lattice="3.165794009492488 0.0 0.0 0.0 8.957442628806438 0.0 0.0 0.0 10.290981657992843" Properties=species:S:1:pos:R:3:initial_magmoms:R:1:castep_labels:S:1:forces:R:3 n_minim_iter=4 energy=-61.747157451583 stress="-0.0023007569904013405 0.0 -0.0 0.0 -0.008832498556207703 0.0 -0.0 0.0 -0.0020938869247039693" free_energy=-61.747157451583 pbc="T T T"
P        0.89963431       2.11135587       6.40010001       0.00000000 NULL       0.18951700       0.09388200      -0.01234500
P        0.89963431       6.84608676       3.89088165       0.00000000 NULL       0.18951700      -0.09388200       0.01234500
P        2.48253132       6.59007718       9.03637248       0.00000000 NULL       0.18951700       0.09388200       0.01234600
P        2.48253132       2.36736545       1.25460918       0.00000000 NULL       0.18951700      -0.09388200      -0.01234600
P        2.93166418       0.69158731       7.63855594       0.00000000 NULL      -0.24372400      -0.04136900       0.02064900
P        2.93166418       8.26585532       2.65242572       0.00000000 NULL      -0.24372400       0.04136900      -0.02064900
P        1.34876717       5.17030863       7.79791655       0.00000000 NULL      -0.24372400      -0.04136900      -0.02064900
P        1.34876717       3.78713400       2.49306511       0.00000000 NULL      -0.24372400       0.04136900       0.02064900
P        2.89696168       6.53383616       6.89027253       0.00000000 NULL       0.05420600      -0.04302600      -0.05929000
P        2.89696168       2.42360647       3.40070913       0.00000000 NULL       0.05420600       0.04302600       0.05929000
P        1.31406468       2.05511485       8.54619996       0.00000000 NULL       0.05420600      -0.04302600       0.05929000
P        1.31406468       6.90232778       1.74478170       0.00000000 NULL       0.05420600       0.04302600      -0.05929000
12
Lattice="3.1196492062147447 0.0 0.0 0.0 9.323002797271931 0.0 0.0 0.0 10.323508054877205" Properties=species:S:1:pos:R:3:initial_magmoms:R:1:castep_labels:S:1:forces:R:3 n_minim_iter=5 energy=-61.812658674145 stress="-0.004308951218739159 -0.0 -0.0 -0.0 -0.004248702237036712 0.0 -0.0 0.0 -0.003193862132846613" free_energy=-61.812658674145 pbc="T T T"
P        0.88860678       2.18984793       6.43320493       0.00000000 NULL       0.23388400       0.03137900      -0.06933700
P        0.88860678       7.13315487       3.89030313       0.00000000 NULL       0.23388400      -0.03137900       0.06933700
P        2.44843139       6.85134932       9.05205715       0.00000000 NULL       0.23388400       0.03137800       0.06933700
P        2.44843139       2.47165347       1.27145090       0.00000000 NULL       0.23388400      -0.03137800      -0.06933700
P        2.87369861       0.73280426       7.65529737       0.00000000 NULL      -0.12624500       0.04632400       0.01119400
P        2.87369861       8.59019854       2.66821069       0.00000000 NULL      -0.12624500      -0.04632400      -0.01119400
P        1.31387401       5.39430566       7.82996471       0.00000000 NULL      -0.12624400       0.04632400      -0.01119300
P        1.31387401       3.92869714       2.49354334       0.00000000 NULL      -0.12624400      -0.04632400       0.01119300
P        2.86788324       6.79508362       6.91479186       0.00000000 NULL      -0.10764000      -0.07177300      -0.08614600
P        2.86788324       2.52791918       3.40871619       0.00000000 NULL      -0.10764000       0.07177300       0.08614600
P        1.30805864       2.13358222       8.57047022       0.00000000 NULL      -0.10763900      -0.07177300       0.08614600
P        1.30805864       7.18942058       1.75303784       0.00000000 NULL      -0.10763900       0.07177300      -0.08614600
12
Lattice="3.1378255126623085 0.0 0.0 0.0 9.777853623701949 0.0 0.0 0.0 10.383792589166843" Properties=species:S:1:pos:R:3:initial_magmoms:R:1:castep_labels:S:1:forces:R:3 n_minim_iter=6 energy=-61.914004078228 stress="-0.008710109298255777 0.0 0.0 0.0 -0.006778393736301937 -0.0 0.0 -0.0 -0.007252329800614781" free_energy=-61.914004078228 pbc="T T T"
P        0.95700409       2.27227111       6.48655181       0.00000000 NULL       0.19530100       0.02007700      -0.20786800
P        0.95700409       7.50558251       3.89724078       0.00000000 NULL       0.19530100      -0.02007700       0.20786800
P        2.52591684       7.16119793       9.08913708       0.00000000 NULL       0.19530100       0.02007800       0.20786900
P        2.52591684       2.61665570       1.29465551       0.00000000 NULL       0.19530100      -0.02007800      -0.20786900
P        2.85709778       0.84654944       7.69307235       0.00000000 NULL      -0.13842500      -0.41320900      -0.29336000
P        2.85709778       8.93130418       2.69072024       0.00000000 NULL      -0.13842500       0.41320900       0.29336000
P        1.28818503       5.73547625       7.88261653       0.00000000 NULL      -0.13842800      -0.41320900       0.29335900
P        1.28818503       4.04237737       2.50117606       0.00000000 NULL      -0.13842800       0.41320900      -0.29335900
P        2.85471699       7.07477676       6.95800957       0.00000000 NULL      -0.05687300       0.41907500      -0.52180900
P        2.85471699       2.70307687       3.42578302       0.00000000 NULL      -0.05687300      -0.41907500       0.52180900
P        1.28580424       2.18584994       8.61767931       0.00000000 NULL      -0.05687600       0.41907500       0.52181000
P        1.28580424       7.59200368       1.76611328       0.00000000 NULL      -0.05687600      -0.41907500      -0.52181000
12
Lattice="3.0924811630441766 0.0 0.0 0.0 10.405571436424024 0.0 0.0 0.0 10.368226707322036" Properties=species:S:1:pos:R:3:initial_magmoms:R:1:castep_labels:S:1:forces:R:3 n_minim_iter=7 energy=-62.069537703968 stress="-0.017233990888466784 -0.0 0.0 -0.0 -0.006045057722901805 0.0 0.0 0.0 -0.005278571726542258" free_energy=-62.069537703968 pbc="T T T"
P        1.04990331       2.35619810       6.49564014       0.00000000 NULL       0.34781500       0.28564300      -0.22925100
P        1.04990331       8.04937333       3.87258657       0.00000000 NULL       0.34781500      -0.28564300       0.22925100
P        2.59614389       7.55898382       9.05669993       0.00000000 NULL       0.34781500       0.28564300       0.22925100
P        2.59614389       2.84658762       1.31152678       0.00000000 NULL       0.34781500      -0.28564300      -0.22925100
P        2.76481343       0.98583181       7.61506491       0.00000000 NULL      -0.30914900      -0.70722400      -0.11033200
P        2.76481343       9.41973963       2.75316179       0.00000000 NULL      -0.30914900       0.70722400       0.11033200
P        1.21857285       6.18861753       7.93727515       0.00000000 NULL      -0.30914800      -0.70722400       0.11033200
P        1.21857285       4.21695391       2.43095156       0.00000000 NULL      -0.30914800       0.70722400      -0.11033200
P        2.75773209       7.51460173       6.89199669       0.00000000 NULL      -0.03866700       0.44781300      -0.36524200
P        2.75773209       2.89096971       3.47623001       0.00000000 NULL      -0.03866700      -0.44781300       0.36524200
P        1.21149151       2.31181601       8.66034337       0.00000000 NULL      -0.03866600       0.44781300       0.36524200
P        1.21149151       8.09375543       1.70788334       0.00000000 NULL      -0.03866600      -0.44781300      -0.36524200
12
Lattice="3.0864132309492986 0.0 0.0 0.0 10.43249835696365 0.0 0.0 0.0 10.341972575725752" Properties=species:S:1:pos:R:3:initial_magmoms:R:1:castep_labels:S:1:forces:R:3 n_minim_iter=8 energy=-62.118757031996 stress="-0.019036420044715906 0.0 -0.0 0.0 -0.006363581393145229 0.0 -0.0 0.0 -0.004316051001990477" free_energy=-62.118757031996 pbc="T T T"
P        1.08802724       2.35779093       6.48100620       0.00000000 NULL       0.23527700       0.30292000      -0.15915300
P        1.08802724       8.07470743       3.86096638       0.00000000 NULL       0.23527700      -0.30292000       0.15915300
P        2.63123386       7.57404011       9.03195267       0.00000000 NULL       0.23527700       0.30291900       0.15915300
P        2.63123386       2.85845825       1.31001991       0.00000000 NULL       0.23527700      -0.30291900      -0.15915300
P        2.72778511       0.99998990       7.58199649       0.00000000 NULL      -0.13970600      -0.75582800      -0.11965400
P        2.72778511       9.43250846       2.75997609       0.00000000 NULL      -0.13970600       0.75582800       0.11965400
P        1.18457850       6.21623908       7.93096238       0.00000000 NULL      -0.13970500      -0.75582800       0.11965500
P        1.18457850       4.21625928       2.41101020       0.00000000 NULL      -0.13970500       0.75582800      -0.11965500
P        2.74374039       7.53039425       6.85833243       0.00000000 NULL      -0.09557200       0.47235900      -0.30517200
P        2.74374039       2.90210411       3.48364015       0.00000000 NULL      -0.09557200      -0.47235900       0.30517200
P        1.20053377       2.31414507       8.65462643       0.00000000 NULL      -0.09557100       0.47235900       0.30517200
P        1.20053377       8.11835329       1.68734614       0.00000000 NULL      -0.09557100      -0.47235900      -0.30517200
12
Lattice="3.109467574954839 0.0 0.0 0.0 10.276294242891778 0.0 0.0 0.0 10.379014399409662" Properties=species:S:1:pos:R:3:initial_magmoms:R:1:castep_labels:S:1:forces:R:3 n_minim_iter=9 energy=-62.297183818304 stress="-0.007800324716561138 -0.0 -0.0 -0.0 0.00035311427173738966 -0.0 -0.0 -0.0 0.0013499813998997872" free_energy=-62.297183818304 pbc="T T T"
P        1.15216842       2.36866673       6.54649343       0.00000000 NULL       0.04525000       0.16302200      -0.07639500
P        1.15216842       7.90762751       3.83252097       0.00000000 NULL       0.04525000      -0.16302200       0.07639500
P        2.70690221       7.50681385       9.02202817       0.00000000 NULL       0.04525100       0.16302200       0.07639500
P        2.70690221       2.76948039       1.35698623       0.00000000 NULL       0.04525100      -0.16302200      -0.07639500
P        2.72421204       0.95279477       7.56110025       0.00000000 NULL      -0.02040800      -0.24385800       0.07091400
P        2.72421204       9.32349947       2.81791415       0.00000000 NULL      -0.02040800       0.24385800      -0.07091400
P        1.16947825       6.09094189       8.00742135       0.00000000 NULL      -0.02041000      -0.24385800      -0.07091400
P        1.16947825       4.18535235       2.37159305       0.00000000 NULL      -0.02041000       0.24385800       0.07091400
P        2.73217008       7.41145676       6.84681884       0.00000000 NULL      -0.02484100       0.10649600      -0.03104300
P        2.73217008       2.86483748       3.53219556       0.00000000 NULL      -0.02484100      -0.10649600       0.03104300
P        1.17743630       2.27330964       8.72170276       0.00000000 NULL      -0.02484200       0.10649600       0.03104200
P        1.17743630       8.00298460       1.65731164       0.00000000 NULL      -0.02484200      -0.10649600      -0.03104200
12
Lattice="3.162265673165716 0.0 0.0 0.0 10.073441303469748 0.0 0.0 0.0 10.135797657856696" Properties=species:S:1:pos:R:3:initial_magmoms:R:1:castep_labels:S:1:forces:R:3 n_minim_iter=10 energy=-62.322901100736 stress="0.0009753315195127959 0.0 -0.0 0.0 0.0013876894583141474 0.0 -0.0 0.0 0.0014029585332599988" free_energy=-62.322901100736 pbc="T T T"
P        1.16027971       2.34555582       6.37195413       0.00000000 NULL       0.07473500       0.02555900       0.19716300
P        1.16027971       7.72788549       3.76384353       0.00000000 NULL       0.07473500      -0.02555900      -0.19716300
P        2.74141254       7.38227647       8.83174236       0.00000000 NULL       0.07473500       0.02555900      -0.19716200
P        2.74141254       2.69116483       1.30405530       0.00000000 NULL       0.07473500      -0.02555900       0.19716200
P        2.76567860       0.92923700       7.38872934       0.00000000 NULL       0.01326100      -0.10078100       0.01522100
P        2.76567860       9.14420430       2.74706832       0.00000000 NULL       0.01326100       0.10078100      -0.01522100
P        1.18454577       5.96595766       7.81496714       0.00000000 NULL       0.01326000      -0.10078200      -0.01522100
P        1.18454577       4.10748365       2.32083051       0.00000000 NULL       0.01326000       0.10078100       0.01522100
P        2.79480401       7.25881854       6.64987823       0.00000000 NULL      -0.08799500       0.06274600       0.18862700
P        2.79480401       2.81462276       3.48591943       0.00000000 NULL      -0.08799500      -0.06274600      -0.18862800
P        1.21367117       2.22209789       8.55381826       0.00000000 NULL      -0.08799600       0.06274700      -0.18862700
P        1.21367117       7.85134341       1.58197940       0.00000000 NULL      -0.08799600      -0.06274700       0.18862700
12
Lattice="3.1460586128383916 0.0 0.0 0.0 9.761589133466853 0.0 0.0 0.0 10.272486424276211" Properties=species:S:1:pos:R:3:initial_magmoms:R:1:castep_labels:S:1:forces:R:3 n_minim_iter=11 energy=-62.3532969045 stress="0.001953824716357672 -0.0 -0.0 -0.0 0.0004859995546772417 -0.0 -0.0 -0.0 0.0016772246567363822" free_energy=-62.3532969045 pbc="T T T"
P        1.16311175       2.29679949       6.48360535       0.00000000 NULL       0.03885500      -0.07725400       0.07535600
P        1.16311175       7.46478964       3.78888108       0.00000000 NULL       0.03885500       0.07725400      -0.07535600
P        2.73614105       7.17759406       8.92512429       0.00000000 NULL       0.03885600      -0.07725400      -0.07535600
P        2.73614105       2.58399507       1.34736213       0.00000000 NULL       0.03885600       0.07725400       0.07535600
P        2.74836892       0.86215019       7.50619691       0.00000000 NULL       0.03253700       0.08255600      -0.02443800
P        2.74836892       8.89943894       2.76628952       0.00000000 NULL       0.03253700      -0.08255600       0.02443800
P        1.17533962       5.74294476       7.90253273       0.00000000 NULL       0.03253600       0.08255600       0.02443800
P        1.17533962       4.01864437       2.36995370       0.00000000 NULL       0.03253600      -0.08255600      -0.02443800
P        2.77483663       7.05705147       6.75204796       0.00000000 NULL      -0.07139200       0.00256000       0.04105100
P        2.77483663       2.70453766       3.52043846       0.00000000 NULL      -0.07139200      -0.00256000      -0.04105100
P        1.20180732       2.17625691       8.65668167       0.00000000 NULL      -0.07139200       0.00256000      -0.04105100
P        1.20180732       7.58533223       1.61580475       0.00000000 NULL      -0.07139200      -0.00256000       0.04105100
12
Lattice="3.144547857996038 0.0 0.0 0.0 9.819306768521987 0.0 0.0 0.0 10.287514051768436" Properties=species:S:1:pos:R:3:initial_magmoms:R:1:castep_labels:S:1:forces:R:3 n_minim_iter=12 energy=-62.361107160939 stress="-0.0001848572724718918 0.0 0.0 0.0 -0.0006580188537478683 -0.0 0.0 -0.0 -0.0002063274120880073" free_energy=-62.361107160939 pbc="T T T"
P        1.18160708       2.29341193       6.50210882       0.00000000 NULL      -0.01494900       0.03727500      -0.04946000
P        1.18160708       7.52589484       3.78540524       0.00000000 NULL      -0.01494900      -0.03727400       0.04945900
P        2.75388101       7.20306531       8.92916226       0.00000000 NULL      -0.01494900       0.03727500       0.04946000
P        2.75388101       2.61624146       1.35835179       0.00000000 NULL      -0.01494900      -0.03727500      -0.04946000
P        2.74690995       0.88174925       7.52461293       0.00000000 NULL       0.03039800      -0.03617700       0.04715300
P        2.74690995       8.93755752       2.76290113       0.00000000 NULL       0.03039800       0.03617700      -0.04715300
P        1.17463602       5.79140264       7.90665815       0.00000000 NULL       0.03039800      -0.03617700      -0.04715300
P        1.17463602       4.02790413       2.38085590       0.00000000 NULL       0.03039800       0.03617700       0.04715300
P        2.75458939       7.11307582       6.75880520       0.00000000 NULL      -0.01544900       0.00845300      -0.01519500
P        2.75458939       2.70623095       3.52870885       0.00000000 NULL      -0.01544900      -0.00845300       0.01519500
P        1.18231546       2.20342244       8.67246588       0.00000000 NULL      -0.01544900       0.00845200       0.01519500
P        1.18231546       7.61588433       1.61504817       0.00000000 NULL      -0.01544900      -0.00845200      -0.01519500
12
Lattice="3.137802538653434 0.0 0.0 0.0 9.847067450153347 0.0 0.0 0.0 10.280517561973127" Properties=species:S:1:pos:R:3:initial_magmoms:R:1:castep_labels:S:1:forces:R:3 n_minim_iter=13 energy=-62.363793290821 stress="-0.0009656883825948401 0.0 0.0 0.0 -2.6097984325056963e-05 0.0 0.0 0.0 -0.0002961129560452181" free_energy=-62.363793290821 pbc="T T T"
P        1.17478167       2.29432938       6.49343803       0.00000000 NULL       0.00901100       0.00549300      -0.01896900
P        1.17478167       7.55273807       3.78707953       0.00000000 NULL       0.00901100      -0.00549300       0.01896900
P        2.74368293       7.21786310       8.92733832       0.00000000 NULL       0.00901200       0.00549300       0.01896900
P        2.74368293       2.62920435       1.35317925       0.00000000 NULL       0.00901200      -0.00549300      -0.01896900
P        2.74746298       0.88607408       7.53635242       0.00000000 NULL      -0.00979600      -0.01487000       0.01133600
P        2.74746298       8.96099337       2.74416514       0.00000000 NULL      -0.00979600       0.01487000      -0.01133600
P        1.17856171       5.80960780       7.88442392       0.00000000 NULL      -0.00979800      -0.01487100      -0.01133500
P        1.17856171       4.03745965       2.39609364       0.00000000 NULL      -0.00979800       0.01487100       0.01133500
P        2.74652604       7.14649223       6.75597033       0.00000000 NULL       0.00078500       0.01716700      -0.01994300
P        2.74652604       2.70057522       3.52454723       0.00000000 NULL       0.00078500      -0.01716700       0.01994400
P        1.17762477       2.22295851       8.66480601       0.00000000 NULL       0.00078400       0.01716700       0.01994400
P        1.17762477       7.62410894       1.61571155       0.00000000 NULL       0.00078400      -0.01716700      -0.01994400
12
Lattice="3.141597503155635 0.0 0.0 0.0 9.824663007989919 0.0 0.0 0.0 10.270983383450373" Properties=species:S:1:pos:R:3:initial_magmoms:R:1:castep_labels:S:1:forces:R:3 n_minim_iter=14 energy=-62.365407741276 stress="-0.00023670778461053532 -0.0 -0.0 -0.0 -0.00022011552785345355 -0.0 -0.0 -0.0 -0.00023576145817952307" free_energy=-62.365407741276 pbc="T T T"
P        1.17736502       2.28230072       6.48778460       0.00000000 NULL       0.00687500      -0.00652200       0.00447300
P        1.17736502       7.54236229       3.78319879       0.00000000 NULL       0.00687500       0.00652200      -0.00447300
P        2.74816377       7.19463222       8.91869048       0.00000000 NULL       0.00687600      -0.00652200      -0.00447300
P        2.74816377       2.63003078       1.35229290       0.00000000 NULL       0.00687600       0.00652200       0.00447300
P        2.75158777       0.88749780       7.55023018       0.00000000 NULL      -0.01469600      -0.00540000      -0.00533600
P        2.75158777       8.93716521       2.72075320       0.00000000 NULL      -0.01469600       0.00540000       0.00533600
P        1.18078901       5.79982931       7.85624489       0.00000000 NULL      -0.01469800      -0.00540000       0.00533600
P        1.18078901       4.02483370       2.41473849       0.00000000 NULL      -0.01469800       0.00540000      -0.00533600
P        2.74788216       7.14797185       6.74596799       0.00000000 NULL       0.00782200       0.01737600      -0.01202100
P        2.74788216       2.67669116       3.52501540       0.00000000 NULL       0.00782200      -0.01737600       0.01202100
P        1.17708341       2.23564034       8.66050709       0.00000000 NULL       0.00782100       0.01737600       0.01202100
P        1.17708341       7.58902266       1.61047629       0.00000000 NULL       0.00782100      -0.01737600      -0.01202100
12
Lattice="3.1431866447624337 0.0 0.0 0.0 9.83017872169599 0.0 0.0 0.0 10.272151727176125" Properties=species:S:1:pos:R:3:initial_magmoms:R:1:castep_labels:S:1:forces:R:3 n_minim_iter=15 energy=-62.366572111273 stress="0.00022852019955707932 0.0 -0.0 0.0 -6.427425990575511e-05 0.0 -0.0 0.0 -1.7643914483932776e-05" free_energy=-62.366572111273 pbc="T T T"
P        1.18046527       2.27381840       6.49308349       0.00000000 NULL      -0.00138400      -0.01008200       0.01792900
P        1.18046527       7.55636032       3.77906823       0.00000000 NULL      -0.00138400       0.01008200      -0.01792900
P        2.75205859       7.18890776       8.91514410       0.00000000 NULL      -0.00138300      -0.01008200      -0.01792900
P        2.75205859       2.64127096       1.35700763       0.00000000 NULL      -0.00138300       0.01008200       0.01792900
P        2.75228231       0.89536587       7.57729774       0.00000000 NULL      -0.01040000       0.00632500      -0.00988300
P        2.75228231       8.93481285       2.69485398       0.00000000 NULL      -0.01040000      -0.00632500       0.00988300
P        1.18068899       5.81045523       7.83092985       0.00000000 NULL      -0.01040100       0.00632500       0.00988300
P        1.18068899       4.01972349       2.44122188       0.00000000 NULL      -0.01040100      -0.00632500      -0.00988300
P        2.74746427       7.17609885       6.74154812       0.00000000 NULL       0.01178500       0.00834600      -0.00229000
P        2.74746427       2.65407988       3.53060360       0.00000000 NULL       0.01178500      -0.00834600       0.00229000
P        1.17587095       2.26100949       8.66667947       0.00000000 NULL       0.01178400       0.00834600       0.00229000
P        1.17587095       7.56916924       1.60547226       0.00000000 NULL       0.01178400      -0.00834600      -0.00229000
12
Lattice="3.143341398465458 0.0 0.0 0.0 9.8401938368102 0.0 0.0 0.0 10.27977042727921" Properties=species:S:1:pos:R:3:initial_magmoms:R:1:castep_labels:S:1:forces:R:3 n_minim_iter=16 energy=-62.367284069057 stress="0.0003540647476823389 -0.0 -0.0 -0.0 5.428279929825164e-05 -0.0 -0.0 -0.0 0.00012067387074588154" free_energy=-62.367284069057 pbc="T T T"
P        1.18138544       2.27039884       6.50640905       0.00000000 NULL      -0.00627500      -0.00434500       0.01650000
P        1.18138544       7.56979500       3.77336138       0.00000000 NULL      -0.00627500       0.00434500      -0.01650000
P        2.75305613       7.19049576       8.91324659       0.00000000 NULL      -0.00627600      -0.00434500      -0.01650100
P        2.75305613       2.64969808       1.36652383       0.00000000 NULL      -0.00627600       0.00434500       0.01650100
P        2.75094021       0.90454765       7.60485961       0.00000000 NULL      -0.00118700       0.01023700      -0.00446600
P        2.75094021       8.93564619       2.67491082       0.00000000 NULL      -0.00118700      -0.01023700       0.00446600
P        1.17926951       5.82464457       7.81479603       0.00000000 NULL      -0.00118500       0.01023700       0.00446600
P        1.17926951       4.01554927       2.46497439       0.00000000 NULL      -0.00118500      -0.01023700      -0.00446600
P        2.74821539       7.20377330       6.73960162       0.00000000 NULL       0.00746100      -0.00128700       0.00245900
P        2.74821539       2.63642054       3.54016880       0.00000000 NULL       0.00746100       0.00128700      -0.00245900
P        1.17654470       2.28367638       8.68005402       0.00000000 NULL       0.00746200      -0.00128700      -0.00245900
P        1.17654470       7.55651745       1.59971641       0.00000000 NULL       0.00746200       0.00128700       0.00245900
12
Lattice="3.1418701115252277 0.0 0.0 0.0 9.855001955487122 0.0 0.0 0.0 10.297616819017257" Properties=species:S:1:pos:R:3:initial_magmoms:R:1:castep_labels:S:1:forces:R:3 n_minim_iter=17 energy=-62.367969850254 stress="4.8738184901395146e-05 0.0 0.0 0.0 7.580449993994341e-05 0.0 0.0 0.0 0.00010208673864481416" free_energy=-62.367969850254 pbc="T T T"
P        1.17944566       2.27561077       6.54099542       0.00000000 NULL      -0.00551100       0.01302700      -0.00230400
P        1.17944566       7.57939119       3.75662140       0.00000000 NULL      -0.00551100      -0.01302700       0.00230400
P        2.75038071       7.20311174       8.90542981       0.00000000 NULL      -0.00551100       0.01302700       0.00230400
P        2.75038071       2.65189021       1.39218701       0.00000000 NULL      -0.00551100      -0.01302700      -0.00230400
P        2.74781634       0.92244974       7.65039622       0.00000000 NULL       0.01004700       0.00368300       0.01176000
P        2.74781634       8.93255222       2.64722060       0.00000000 NULL       0.01004700      -0.00368300      -0.01176000
P        1.17688129       5.84995072       7.79602901       0.00000000 NULL       0.01004700       0.00368300      -0.01176000
P        1.17688129       4.00505124       2.50158781       0.00000000 NULL       0.01004700      -0.00368300       0.01176000
P        2.75015183       7.24242243       6.73244196       0.00000000 NULL      -0.00453600      -0.01196900       0.00166600
P        2.75015183       2.61257953       3.56517486       0.00000000 NULL      -0.00453600       0.01196900      -0.00166600
P        1.17921677       2.31492145       8.71398327       0.00000000 NULL      -0.00453500      -0.01196900      -0.00166600
P        1.17921677       7.54008050       1.58363355       0.00000000 NULL      -0.00453500       0.01196900       0.00166600
12
Lattice="3.140992876954454 0.0 0.0 0.0 9.848701302695252 0.0 0.0 0.0 10.310965015946204" Properties=species:S:1:pos:R:3:initial_magmoms:R:1:castep_labels:S:1:forces:R:3 n_minim_iter=18 energy=-62.36942888166 stress="-0.0003528582414415045 -0.0 -0.0 -0.0 -0.00019049015326508942 -0.0 -0.0 -0.0 -0.00022858191366948106" free_energy=-62.36942888166 pbc="T T T"
P        1.17465526       2.30891117       6.58991520       0.00000000 NULL       0.01114700       0.01479400      -0.01758400
P        1.17465526       7.53979013       3.72104982       0.00000000 NULL       0.01114700      -0.01479400       0.01758400
P        2.74515170       7.23326182       8.87653232       0.00000000 NULL       0.01114800       0.01479400       0.01758400
P        2.74515170       2.61543948       1.43443269       0.00000000 NULL       0.01114800      -0.01479400      -0.01758400
P        2.74926620       0.94221247       7.68145742       0.00000000 NULL      -0.00392300      -0.00896900       0.01259400
P        2.74926620       8.90648883       2.62950759       0.00000000 NULL      -0.00392300       0.00896900      -0.01259400
P        1.17876976       5.86656312       7.78499010       0.00000000 NULL      -0.00392400      -0.00896900      -0.01259400
P        1.17876976       3.98213818       2.52597491       0.00000000 NULL      -0.00392400       0.00896900       0.01259400
P        2.75163074       7.24473987       6.70382573       0.00000000 NULL      -0.00722400      -0.00269400      -0.00978900
P        2.75163074       2.60396143       3.60713928       0.00000000 NULL      -0.00722400       0.00269400       0.00978900
P        1.18113430       2.32038922       8.76262179       0.00000000 NULL      -0.00722400      -0.00269400       0.00978900
P        1.18113430       7.52831209       1.54834322       0.00000000 NULL      -0.00722400       0.00269400      -0.00978900
12
Lattice="3.1410508811735705 0.0 0.0 0.0 9.850680879006738 0.0 0.0 0.0 10.319206728292409" Properties=species:S:1:pos:R:3:initial_magmoms:R:1:castep_labels:S:1:forces:R:3 n_minim_iter=19 energy=-62.370146303833 stress="-0.00027504633680854393 -0.0 0.0 -0.0 -0.00011099569775102252 0.0 0.0 0.0 4.7198227006430856e-05" free_energy=-62.370146303833 pbc="T T T"
P        1.17522431       2.33410557       6.62869527       0.00000000 NULL       0.01014000       0.00744200      -0.00317000
P        1.17522431       7.51657531       3.69051146       0.00000000 NULL       0.01014000      -0.00744200       0.00317000
P        2.74574975       7.25944601       8.85011483       0.00000000 NULL       0.01014000       0.00744200       0.00317000
P        2.74574975       2.59123487       1.46909190       0.00000000 NULL       0.01014000      -0.00744200      -0.00317000
P        2.74970941       0.96164062       7.71457037       0.00000000 NULL      -0.00614200      -0.00402200       0.00817400
P        2.74970941       8.88904026       2.60463636       0.00000000 NULL      -0.00614200       0.00402200      -0.00817400
P        1.17918397       5.88698106       7.76423972       0.00000000 NULL      -0.00614200      -0.00402200      -0.00817400
P        1.17918397       3.96369982       2.55496701       0.00000000 NULL      -0.00614200       0.00402200       0.00817400
P        2.75074351       7.26017595       6.67646603       0.00000000 NULL      -0.00399700      -0.00207900       0.00289800
P        2.75074351       2.59050493       3.64274070       0.00000000 NULL      -0.00399700       0.00207900      -0.00289800
P        1.18021807       2.33483551       8.80234407       0.00000000 NULL      -0.00399800      -0.00207900      -0.00289800
P        1.18021807       7.51584537       1.51686266       0.00000000 NULL      -0.00399800       0.00207900       0.00289800
12
Lattice="3.142791011917435 0.0 0.0 0.0 9.858474161454525 0.0 0.0 0.0 10.324548650538807" Properties=species:S:1:pos:R:3:initial_magmoms:R:1:castep_labels:S:1:forces:R:3 n_minim_iter=20 energy=-62.370411863275 stress="3.598148122484125e-05 0.0 -0.0 0.0 7.283827215801922e-06 0.0 -0.0 0.0 -4.251504297635457e-05" free_energy=-62.370411863275 pbc="T T T"
P        1.17793025       2.35285722       6.65825091       0.00000000 NULL       0.00308600      -0.00007200      -0.00364600
P        1.17793025       7.50561694       3.66629774       0.00000000 NULL       0.00308600       0.00007200       0.00364600
P        2.74932576       7.28209430       8.82857207       0.00000000 NULL       0.00308600      -0.00007200       0.00364700
P        2.74932576       2.57637986       1.49597658       0.00000000 NULL       0.00308600       0.00007200      -0.00364700
P        2.75054550       0.97867075       7.74323283       0.00000000 NULL      -0.00176900       0.00044500       0.00066800
P        2.75054550       8.87980341       2.58131582       0.00000000 NULL      -0.00176900      -0.00044500      -0.00066800
P        1.17915000       5.90790783       7.74359015       0.00000000 NULL      -0.00176900       0.00044500      -0.00066800
P        1.17915000       3.95056633       2.58095850       0.00000000 NULL      -0.00176900      -0.00044500       0.00066800
P        2.75090203       7.27975500       6.65543327       0.00000000 NULL      -0.00131700      -0.00012800      -0.00290400
P        2.75090203       2.57871916       3.66911538       0.00000000 NULL      -0.00131700       0.00012800       0.00290400
P        1.17950652       2.35051792       8.83138971       0.00000000 NULL      -0.00131700      -0.00012800       0.00290400
P        1.17950652       7.50795624       1.49315894       0.00000000 NULL      -0.00131700       0.00012800      -0.00290400
