14
Lattice="4.75843 0.0 0.0 0.0 7.0302999999999995 -1.2987567287847532e-18 0.0 -0.005162655589727255 9.169198546600855" Properties=species:S:1:pos:R:3:initial_magmoms:R:1:castep_labels:S:1 n_minim_iter=1 pbc="T T T"
P        1.26922650       5.98218146       6.26797885       0.00000000 NULL
P        3.64844150       1.04295588       2.90121969       0.00000000 NULL
P        1.63114841       1.20626962       5.30130509       0.00000000 NULL
P        4.01036341       5.81886772       3.86789345       0.00000000 NULL
P        4.50494320       0.55438070       5.06804802       0.00000000 NULL
P        2.12572820       6.47075664       4.10115052       0.00000000 NULL
P        2.02211814       2.83027905       4.18702007       0.00000000 NULL
P        4.40133314       4.19485829       4.98217847       0.00000000 NULL
P        2.33635059       0.15378381       0.37046405       0.00000000 NULL
P        4.71556559       6.87135353       8.79873449       0.00000000 NULL
P        1.81506744       1.44307185       2.17987059       0.00000000 NULL
P        4.19428244       5.58206549       6.98932795       0.00000000 NULL
P        2.47113312       0.44981421       6.97455546       0.00000000 NULL
P        0.09191812       6.57532313       2.19464308       0.00000000 NULL
14
Lattice="4.775080420265632 0.0 0.0 0.0 7.048805977689779 -0.0071923378755712345 0.0 -0.014556780162578125 9.193123610352979" Properties=species:S:1:pos:R:3:initial_magmoms:R:1:castep_labels:S:1 n_minim_iter=2 pbc="T T T"
P        1.27380186       5.99125027       6.27808146       0.00000000 NULL
P        3.66134207       1.04299893       2.90784980       0.00000000 NULL
P        1.63695105       1.20419140       5.31383906       0.00000000 NULL
P        4.02449126       5.83005779       3.87209220       0.00000000 NULL
P        4.52044578       0.55065892       5.08074691       0.00000000 NULL
P        2.13290557       6.48359027       4.10518435       0.00000000 NULL
P        2.02923773       2.83372791       4.19489483       0.00000000 NULL
P        4.41677794       4.20052129       4.99103644       0.00000000 NULL
P        2.34452269       0.15375830       0.37115465       0.00000000 NULL
P        4.73206290       6.88049089       8.81477661       0.00000000 NULL
P        1.82118014       1.44475540       2.18388917       0.00000000 NULL
P        4.20872035       5.58949379       7.00204209       0.00000000 NULL
P        2.48000932       0.44397208       6.99261702       0.00000000 NULL
P        0.09246911       6.59027711       2.19331424       0.00000000 NULL
14
Lattice="5.099747291600761 0.0 0.0 0.0 7.409575209840959 -0.15376519721699206 0.0 -0.20598789635071446 9.657184180295253" Properties=species:S:1:pos:R:3:initial_magmoms:R:1:castep_labels:S:1 n_minim_iter=3 pbc="T T T"
P        1.36307569       6.16215660       6.46801752       0.00000000 NULL
P        3.91294934       1.04143071       3.03540146       0.00000000 NULL
P        1.75022428       1.15910457       5.55553906       0.00000000 NULL
P        4.30009792       6.04448274       3.94787992       0.00000000 NULL
P        4.82248505       0.47355043       5.32654574       0.00000000 NULL
P        2.27261140       6.73003688       4.17687324       0.00000000 NULL
P        2.16809674       2.89733682       4.34457284       0.00000000 NULL
P        4.71797039       4.30625048       5.15884613       0.00000000 NULL
P        2.50383659       0.15293240       0.38429528       0.00000000 NULL
P        5.05371024       7.05065491       9.11912370       0.00000000 NULL
P        1.94020992       1.47571399       2.26020764       0.00000000 NULL
P        4.49008356       5.72787331       7.24321133       0.00000000 NULL
P        2.65330823       0.32370491       7.34267715       0.00000000 NULL
P        0.10343458       6.87988240       2.16074183       0.00000000 NULL
14
Lattice="5.141247489588492 0.0 0.0 0.0 7.468693405455122 -0.25393489845438977 0.0 -0.3366766416222431 9.67180668196644" Properties=species:S:1:pos:R:3:initial_magmoms:R:1:castep_labels:S:1 n_minim_iter=4 pbc="T T T"
P        1.37442292       6.11988827       6.39107276       0.00000000 NULL
P        3.94504667       1.01212849       3.02679901       0.00000000 NULL
P        1.76585755       1.09616135       5.54477078       0.00000000 NULL
P        4.33648129       6.03585541       3.87310100       0.00000000 NULL
P        4.85905881       0.40618172       5.32758409       0.00000000 NULL
P        2.28843507       6.72583504       4.09028769       0.00000000 NULL
P        2.18605369       2.86246995       4.30912149       0.00000000 NULL
P        4.75667744       4.26954681       5.10875029       0.00000000 NULL
P        2.52354711       0.14859833       0.38098041       0.00000000 NULL
P        5.09417085       6.98341843       9.03689137       0.00000000 NULL
P        1.95502959       1.45664544       2.24181535       0.00000000 NULL
P        4.52565333       5.67537132       7.17605643       0.00000000 NULL
P        2.67724527       0.22815037       7.35031826       0.00000000 NULL
P        0.10662153       6.90386639       2.06755352       0.00000000 NULL
14
Lattice="5.143907821244648 0.0 0.0 0.0 7.502968484122431 -0.3742912892610863 0.0 -0.4936754317286912 9.626649479778886" Properties=species:S:1:pos:R:3:initial_magmoms:R:1:castep_labels:S:1 n_minim_iter=5 pbc="T T T"
P        1.37500904       6.03746764       6.25522616       0.00000000 NULL
P        3.94696295       0.97182540       2.99713203       0.00000000 NULL
P        1.76884382       1.01498906       5.49520947       0.00000000 NULL
P        4.34079773       5.99430399       3.75714872       0.00000000 NULL
P        4.85795740       0.32272684       5.29433764       0.00000000 NULL
P        2.28600349       6.68656621       3.95802054       0.00000000 NULL
P        2.18756106       2.80509560       4.23782565       0.00000000 NULL
P        4.75951497       4.20419745       5.01453253       0.00000000 NULL
P        2.52380605       0.14255828       0.37389051       0.00000000 NULL
P        5.09575996       6.86673477       8.87846767       0.00000000 NULL
P        1.95521626       1.42574509       2.20501103       0.00000000 NULL
P        4.52717017       5.58354796       7.04734715       0.00000000 NULL
P        2.68179450       0.11056183       7.31200656       0.00000000 NULL
P        0.10984059       6.89873122       1.94035162       0.00000000 NULL
14
Lattice="5.124684825747478 0.0 0.0 0.0 7.592900601589513 -0.6053676145263358 0.0 -0.7951204617167321 9.539322121672862" Properties=species:S:1:pos:R:3:initial_magmoms:R:1:castep_labels:S:1 n_minim_iter=6 pbc="T T T"
P        1.36875550       5.89657332       5.99130328       0.00000000 NULL
P        3.93109792       0.90120681       2.94265122       0.00000000 NULL
P        1.76831373       0.86792631       5.39852198       0.00000000 NULL
P        4.33065614       5.92985383       3.53543252       0.00000000 NULL
P        4.82982000       0.16693986       5.23105136       0.00000000 NULL
P        2.26747758       6.63084028       3.70290314       0.00000000 NULL
P        2.18036363       2.70422689       4.10020264       0.00000000 NULL
P        4.74270605       4.09355325       4.83375186       0.00000000 NULL
P        2.51168907       0.13080821       0.35700774       0.00000000 NULL
P        5.07403149       6.66697193       8.57694676       0.00000000 NULL
P        1.94575825       1.37093749       2.13377280       0.00000000 NULL
P        4.50810066       5.42684264       6.80018170       0.00000000 NULL
P        2.68064958      -0.11407856       7.24089263       0.00000000 NULL
P        0.11830717       6.91185870       1.69306187       0.00000000 NULL
14
Lattice="5.099415730778022 0.0 0.0 0.0 7.642947565977274 -0.5970677946038282 0.0 -0.7843322561593521 9.57100559221619" Properties=species:S:1:pos:R:3:initial_magmoms:R:1:castep_labels:S:1 n_minim_iter=7 pbc="T T T"
P        1.36084075       5.93789345       6.01119045       0.00000000 NULL
P        3.91054862       0.92072186       2.96274734       0.00000000 NULL
P        1.76519139       0.89413369       5.41582606       0.00000000 NULL
P        4.31489925       5.96448161       3.55811173       0.00000000 NULL
P        4.79736940       0.18413328       5.25199133       0.00000000 NULL
P        2.24766153       6.67448202       3.72194646       0.00000000 NULL
P        2.17061023       2.72795747       4.11678593       0.00000000 NULL
P        4.72031809       4.13065783       4.85715186       0.00000000 NULL
P        2.49768204       0.12951429       0.34851613       0.00000000 NULL
P        5.04738990       6.72910102       8.62542166       0.00000000 NULL
P        1.93381979       1.38233527       2.14144616       0.00000000 NULL
P        4.48352766       5.47628004       6.83249163       0.00000000 NULL
P        2.67460457      -0.10323186       7.27398854       0.00000000 NULL
P        0.12489671       6.96184717       1.69994925       0.00000000 NULL
14
Lattice="5.0704556403806045 0.0 0.0 0.0 7.607284603845578 -0.6118102493419292 0.0 -0.8035337666165336 9.530613361277698" Properties=species:S:1:pos:R:3:initial_magmoms:R:1:castep_labels:S:1 n_minim_iter=8 pbc="T T T"
P        1.35325097       5.89120191       5.96672352       0.00000000 NULL
P        3.88847879       0.91254892       2.95207959       0.00000000 NULL
P        1.75782616       0.88129979       5.38874105       0.00000000 NULL
P        4.29305398       5.92245104       3.53006206       0.00000000 NULL
P        4.76587074       0.17359253       5.22939866       0.00000000 NULL
P        2.23064292       6.63015830       3.68940445       0.00000000 NULL
P        2.15880345       2.70388051       4.09158165       0.00000000 NULL
P        4.69403127       4.09987032       4.82722145       0.00000000 NULL
P        2.48254837       0.12684954       0.34172284       0.00000000 NULL
P        5.01777619       6.67690129       8.57708027       0.00000000 NULL
P        1.92174070       1.36952994       2.12798407       0.00000000 NULL
P        4.45696852       5.43422089       6.79081903       0.00000000 NULL
P        2.66239658      -0.12133680       7.24604729       0.00000000 NULL
P        0.12716876       6.92508763       1.67275582       0.00000000 NULL
14
Lattice="5.078572172836162 0.0 0.0 0.0 7.616787672122155 -0.6177737484454874 0.0 -0.8113185792677101 9.551317370261106" Properties=species:S:1:pos:R:3:initial_magmoms:R:1:castep_labels:S:1 n_minim_iter=9 pbc="T T T"
P        1.35558633       5.89178446       5.97318467       0.00000000 NULL
P        3.89487241       0.91368463       2.96035894       0.00000000 NULL
P        1.76211882       0.88118137       5.39914679       0.00000000 NULL
P        4.30140491       5.92428772       3.53439682       0.00000000 NULL
P        4.77102202       0.17198491       5.24097578       0.00000000 NULL
P        2.23173593       6.63348418       3.69256783       0.00000000 NULL
P        2.16262355       2.70396047       4.09809774       0.00000000 NULL
P        4.70190964       4.10150862       4.83544587       0.00000000 NULL
P        2.48604329       0.12595679       0.33932889       0.00000000 NULL
P        5.02532938       6.67951230       8.59421473       0.00000000 NULL
P        1.92388952       1.36928217       2.13098905       0.00000000 NULL
P        4.46317561       5.43618692       6.80255457       0.00000000 NULL
P        2.66853017      -0.12716624       7.26387743       0.00000000 NULL
P        0.12924408       6.93263532       1.66966619       0.00000000 NULL
14
Lattice="5.073794310654657 0.0 0.0 0.0 7.61165276863953 -0.6236641741411415 0.0 -0.8189973373561658 9.55270151694557" Properties=species:S:1:pos:R:3:initial_magmoms:R:1:castep_labels:S:1 n_minim_iter=10 pbc="T T T"
P        1.35446357       5.88023032       5.96660387       0.00000000 NULL
P        3.89136072       0.91242511       2.96243346       0.00000000 NULL
P        1.76183125       0.87829212       5.39843062       0.00000000 NULL
P        4.29872840       5.91436331       3.53060672       0.00000000 NULL
P        4.76418631       0.16917346       5.24176766       0.00000000 NULL
P        2.22728915       6.62348197       3.68726968       0.00000000 NULL
P        2.16095167       2.69808168       4.09584394       0.00000000 NULL
P        4.69784883       4.09457374       4.83319339       0.00000000 NULL
P        2.48320954       0.12482880       0.33628218       0.00000000 NULL
P        5.02010669       6.66782662       8.59275516       0.00000000 NULL
P        1.92129762       1.36592879       2.12953107       0.00000000 NULL
P        4.45819478       5.42672664       6.79950627       0.00000000 NULL
P        2.66775821      -0.13401114       7.26682960       0.00000000 NULL
P        0.13086106       6.92666657       1.66220773       0.00000000 NULL
14
Lattice="5.04375807941791 0.0 0.0 0.0 7.578717958745348 -0.6659124308973219 0.0 -0.8740750187303302 9.577069301269313" Properties=species:S:1:pos:R:3:initial_magmoms:R:1:castep_labels:S:1 n_minim_iter=11 pbc="T T T"
P        1.34770500       5.80045068       5.92862411       0.00000000 NULL
P        3.86958404       0.90419225       2.98253276       0.00000000 NULL
P        1.76118953       0.85827422       5.40175187       0.00000000 NULL
P        4.28306857       5.84636872       3.50940500       0.00000000 NULL
P        4.71886714       0.14992371       5.25527736       0.00000000 NULL
P        2.19698811       6.55471922       3.65587951       0.00000000 NULL
P        2.15096664       2.65769589       4.08602993       0.00000000 NULL
P        4.67284568       4.04694705       4.82512694       0.00000000 NULL
P        2.46488588       0.11679933       0.31391895       0.00000000 NULL
P        4.98676492       6.58784360       8.59723792       0.00000000 NULL
P        1.90403333       1.34246332       2.12228412       0.00000000 NULL
P        4.42591237       5.36217962       6.78887274       0.00000000 NULL
P        2.66473966      -0.18338889       7.29974674       0.00000000 NULL
P        0.14286062       6.88803182       1.61141012       0.00000000 NULL
14
Lattice="4.981874906040952 0.0 0.0 0.0 7.463528189830253 -0.7616865283937755 0.0 -0.9989028397994371 9.704732279603244" Properties=species:S:1:pos:R:3:initial_magmoms:R:1:castep_labels:S:1 n_minim_iter=12 pbc="T T T"
P        1.33571221       5.58788179       5.89047463       0.00000000 NULL
P        3.82664967       0.87674356       3.05257111       0.00000000 NULL
P        1.75668574       0.79705817       5.45549903       0.00000000 NULL
P        4.24762319       5.66756717       3.48754671       0.00000000 NULL
P        4.62499596       0.10653422       5.32132073       0.00000000 NULL
P        2.13405850       6.35809113       3.62172501       0.00000000 NULL
P        2.13311891       2.55286745       4.09445962       0.00000000 NULL
P        4.62405636       3.91175790       4.84858613       0.00000000 NULL
P        2.42660341       0.09924464       0.25959065       0.00000000 NULL
P        4.91754086       6.36538070       8.68345509       0.00000000 NULL
P        1.86616005       1.27755551       2.12208351       0.00000000 NULL
P        4.35709750       5.18706983       6.82096223       0.00000000 NULL
P        2.66038153      -0.30496679       7.43319678       0.00000000 NULL
P        0.16944408       6.76959214       1.50984896       0.00000000 NULL
14
Lattice="4.96828355475956 0.0 0.0 0.0 7.35325839273425 -0.8366186281943127 0.0 -1.0965513065221195 9.701395329378226" Properties=species:S:1:pos:R:3:initial_magmoms:R:1:castep_labels:S:1 n_minim_iter=13 pbc="T T T"
P        1.33266194       5.41587492       5.80828232       0.00000000 NULL
P        3.81680372       0.84083216       3.05649438       0.00000000 NULL
P        1.75574844       0.72979030       5.44060795       0.00000000 NULL
P        4.23989022       5.52691679       3.42416874       0.00000000 NULL
P        4.59883998       0.06195697       5.30871482       0.00000000 NULL
P        2.11469820       6.19475011       3.55606188       0.00000000 NULL
P        2.13242912       2.46463645       4.05620558       0.00000000 NULL
P        4.61657089       3.79207063       4.80857111       0.00000000 NULL
P        2.41697649       0.09195027       0.23135272       0.00000000 NULL
P        4.90111827       6.16475682       8.63342397       0.00000000 NULL
P        1.85479644       1.22249318       2.10143380       0.00000000 NULL
P        4.33893822       5.03421390       6.76334289       0.00000000 NULL
P        2.66636236      -0.40223190       7.44851790       0.00000000 NULL
P        0.18222058       6.65893898       1.41625879       0.00000000 NULL
14
Lattice="4.983752758143891 0.0 0.0 0.0 7.38033128965611 -0.8319580510082127 0.0 -1.0904926760912006 9.759998537480461" Properties=species:S:1:pos:R:3:initial_magmoms:R:1:castep_labels:S:1 n_minim_iter=14 pbc="T T T"
P        1.33668020       5.44035677       5.84936491       0.00000000 NULL
P        3.82855658       0.84948184       3.07867557       0.00000000 NULL
P        1.76149502       0.73993500       5.47559263       0.00000000 NULL
P        4.25337140       5.54990361       3.45244785       0.00000000 NULL
P        4.61141158       0.07119833       5.34092721       0.00000000 NULL
P        2.11953520       6.21864028       3.58711327       0.00000000 NULL
P        2.13983894       2.47852188       4.08388766       0.00000000 NULL
P        4.63171532       3.81131672       4.84415282       0.00000000 NULL
P        2.42424685       0.09209058       0.22898350       0.00000000 NULL
P        4.91612322       6.19774803       8.69905698       0.00000000 NULL
P        1.85951912       1.22799003       2.11544524       0.00000000 NULL
P        4.35139550       5.06184858       6.81259524       0.00000000 NULL
P        2.67680006      -0.39796516       7.49769702       0.00000000 NULL
P        0.18492368       6.68780377       1.43034346       0.00000000 NULL
14
Lattice="4.9748188592862475 0.0 0.0 0.0 7.371726191463617 -0.8336304807554594 0.0 -1.092667606783982 9.761881999775728" Properties=species:S:1:pos:R:3:initial_magmoms:R:1:castep_labels:S:1 n_minim_iter=15 pbc="T T T"
P        1.33415191       5.42997739       5.84741573       0.00000000 NULL
P        3.82156134       0.84908119       3.08083578       0.00000000 NULL
P        1.75855238       0.73824157       5.47641709       0.00000000 NULL
P        4.24596181       5.54081702       3.45183442       0.00000000 NULL
P        4.60167393       0.07193566       5.34097802       0.00000000 NULL
P        2.11426450       6.20712293       3.58727349       0.00000000 NULL
P        2.13665285       2.47398024       4.08340706       0.00000000 NULL
P        4.62406228       3.80507834       4.84484445       0.00000000 NULL
P        2.41961937       0.09162381       0.22570741       0.00000000 NULL
P        4.90702880       6.18743477       8.70254410       0.00000000 NULL
P        1.85550061       1.22435983       2.11516168       0.00000000 NULL
P        4.34291004       5.05469875       6.81308983       0.00000000 NULL
P        2.67370703      -0.40227050       7.50210521       0.00000000 NULL
P        0.18629760       6.68132909       1.42614631       0.00000000 NULL
14
Lattice="4.970633409615817 0.0 0.0 0.0 7.366669118617223 -0.8374033707904712 0.0 -1.0975846472943622 9.770398933614244" Properties=species:S:1:pos:R:3:initial_magmoms:R:1:castep_labels:S:1 n_minim_iter=16 pbc="T T T"
P        1.33291036       5.42049997       5.84796989       0.00000000 NULL
P        3.81822706       0.84858450       3.08502567       0.00000000 NULL
P        1.75733603       0.73577445       5.48069004       0.00000000 NULL
P        4.24265274       5.53331001       3.45230551       0.00000000 NULL
P        4.59612683       0.07181256       5.34438786       0.00000000 NULL
P        2.11081013       6.19727191       3.58860770       0.00000000 NULL
P        2.13557452       2.46965344       4.08497815       0.00000000 NULL
P        4.62089122       3.79943103       4.84801740       0.00000000 NULL
P        2.41728393       0.09112391       0.22217280       0.00000000 NULL
P        4.90260063       6.17796056       8.71082276       0.00000000 NULL
P        1.85312360       1.22067511       2.11589800       0.00000000 NULL
P        4.33844031       5.04840936       6.81709756       0.00000000 NULL
P        2.67338547      -0.40873231       7.51193379       0.00000000 NULL
P        0.18806876       6.67781678       1.42106177       0.00000000 NULL
14
Lattice="4.967778939135409 0.0 0.0 0.0 7.361728027792337 -0.8420493730620763 0.0 -1.1036405208881102 9.777274846554945" Properties=species:S:1:pos:R:3:initial_magmoms:R:1:castep_labels:S:1 n_minim_iter=17 pbc="T T T"
P        1.33204869       5.41055090       5.84690984       0.00000000 NULL
P        3.81593816       0.84753660       3.08831562       0.00000000 NULL
P        1.75656782       0.73253371       5.48382535       0.00000000 NULL
P        4.24045729       5.52555379       3.45140012       0.00000000 NULL
P        4.59195856       0.07077980       5.34684440       0.00000000 NULL
P        2.10806909       6.18730771       3.58838106       0.00000000 NULL
P        2.13499328       2.46484586       4.08551825       0.00000000 NULL
P        4.61888275       3.79324164       4.84970722       0.00000000 NULL
P        2.41563122       0.09064674       0.21893792       0.00000000 NULL
P        4.89952068       6.16744076       8.71628755       0.00000000 NULL
P        1.85131506       1.21688865       2.11610921       0.00000000 NULL
P        4.33520453       5.04119885       6.81911626       0.00000000 NULL
P        2.67359810      -0.41588804       7.52015505       0.00000000 NULL
P        0.18970863       6.67397554       1.41507042       0.00000000 NULL
14
Lattice="4.9592342648391705 0.0 0.0 0.0 7.343068488296657 -0.8614121118233277 0.0 -1.1288804769827292 9.801531834791074" Properties=species:S:1:pos:R:3:initial_magmoms:R:1:castep_labels:S:1 n_minim_iter=18 pbc="T T T"
P        1.32942464       5.37157410       5.84045622       0.00000000 NULL
P        3.80904177       0.84261391       3.09966350       0.00000000 NULL
P        1.75442564       0.71880589       5.49426270       0.00000000 NULL
P        4.23404278       5.49538212       3.44585702       0.00000000 NULL
P        4.57837544       0.06539866       5.35486745       0.00000000 NULL
P        2.09875831       6.14878935       3.58525227       0.00000000 NULL
P        2.13369250       2.44555878       4.08609780       0.00000000 NULL
P        4.61330963       3.76862923       4.85402192       0.00000000 NULL
P        2.41052394       0.08889252       0.20686958       0.00000000 NULL
P        4.89014108       6.12529549       8.73325014       0.00000000 NULL
P        1.84536503       1.20213297       2.11616531       0.00000000 NULL
P        4.32498217       5.01205503       6.82395441       0.00000000 NULL
P        2.67548469      -0.44473118       7.54972951       0.00000000 NULL
P        0.19586756       6.65891919       1.39039021       0.00000000 NULL
14
Lattice="4.956003384454815 0.0 0.0 0.0 7.325119034918897 -0.8852159861229982 0.0 -1.1599132611862761 9.823243378852032" Properties=species:S:1:pos:R:3:initial_magmoms:R:1:castep_labels:S:1 n_minim_iter=19 pbc="T T T"
P        1.32828733       5.32949614       5.82898539       0.00000000 NULL
P        3.80628902       0.83570963       3.10904200       0.00000000 NULL
P        1.75405836       0.70175500       5.50214284       0.00000000 NULL
P        4.23206006       5.46345077       3.43588455       0.00000000 NULL
P        4.56968573       0.05699971       5.36043854       0.00000000 NULL
P        2.09168404       6.10820606       3.57758884       0.00000000 NULL
P        2.13458967       2.42365339       4.08382264       0.00000000 NULL
P        4.61259136       3.74155238       4.85420475       0.00000000 NULL
P        2.40811437       0.08722082       0.19479387       0.00000000 NULL
P        4.88611606       6.07798495       8.74323351       0.00000000 NULL
P        1.84142370       1.18617543       2.11474797       0.00000000 NULL
P        4.31942539       4.97903034       6.82327942       0.00000000 NULL
P        2.68023511      -0.47837830       7.57750484       0.00000000 NULL
P        0.20223342       6.64358407       1.36052255       0.00000000 NULL
14
Lattice="4.953569089604258 0.0 0.0 0.0 7.317478273429993 -0.8947564608252173 0.0 -1.1723507190690767 9.83260006789294" Properties=species:S:1:pos:R:3:initial_magmoms:R:1:castep_labels:S:1 n_minim_iter=20 pbc="T T T"
P        1.32751984       5.31201085       5.82467989       0.00000000 NULL
P        3.80430438       0.83311670       3.11316371       0.00000000 NULL
P        1.75344905       0.69502175       5.50555729       0.00000000 NULL
P        4.23023359       5.45010580       3.43228631       0.00000000 NULL
P        4.56488027       0.05424312       5.36255318       0.00000000 NULL
P        2.08809572       6.09088443       3.57529042       0.00000000 NULL
P        2.13454040       2.41449293       4.08317376       0.00000000 NULL
P        4.61132495       3.73063462       4.85466984       0.00000000 NULL
P        2.40660586       0.08655871       0.18938196       0.00000000 NULL
P        4.88339040       6.05856884       8.74846164       0.00000000 NULL
P        1.83933072       1.17941850       2.11430532       0.00000000 NULL
P        4.31611526       4.96570905       6.82353828       0.00000000 NULL
P        2.68185737      -0.49244572       7.58994773       0.00000000 NULL
P        0.20507282       6.63757327       1.34789587       0.00000000 NULL
14
Lattice="4.949435215924004 0.0 0.0 0.0 7.300909370015326 -0.9200034893623421 0.0 -1.2052667365685816 9.858846756695055" Properties=species:S:1:pos:R:3:initial_magmoms:R:1:castep_labels:S:1 n_minim_iter=21 pbc="T T T"
P        1.32616267       5.26918869       5.81475450       0.00000000 NULL
P        3.80088027       0.82645394       3.12408876       0.00000000 NULL
P        1.75253571       0.67763123       5.51534010       0.00000000 NULL
P        4.22725332       5.41801140       3.42350317       0.00000000 NULL
P        4.55456298       0.04687137       5.36886463       0.00000000 NULL
P        2.07984537       6.04877126       3.56997863       0.00000000 NULL
P        2.13524585       2.39162115       4.08230998       0.00000000 NULL
P        4.60996346       3.70402148       4.85653329       0.00000000 NULL
P        2.40383312       0.08498549       0.17570937       0.00000000 NULL
P        4.87855073       6.01065714       8.76313389       0.00000000 NULL
P        1.83482305       1.16256726       2.11358701       0.00000000 NULL
P        4.30954066       4.93307537       6.82525625       0.00000000 NULL
P        2.68707673      -0.52915699       7.62365069       0.00000000 NULL
P        0.21235912       6.62479962       1.31519258       0.00000000 NULL
14
Lattice="4.930719163196433 0.0 0.0 0.0 7.240841114902776 -1.0252806242789987 0.0 -1.3425292773926008 9.951830155889603" Properties=species:S:1:pos:R:3:initial_magmoms:R:1:castep_labels:S:1 n_minim_iter=22 pbc="T T T"
P        1.32055191       5.10119220       5.76585633       0.00000000 NULL
P        3.78591149       0.79711964       3.16069319       0.00000000 NULL
P        1.74704122       0.60509195       5.54511768       0.00000000 NULL
P        4.21240080       5.29321988       3.38143184       0.00000000 NULL
P        4.51174834       0.01504238       5.38357587       0.00000000 NULL
P        2.04638876       5.88326945       3.54297365       0.00000000 NULL
P        2.13640210       2.29837174       4.07282331       0.00000000 NULL
P        4.60176168       3.59994010       4.85372621       0.00000000 NULL
P        2.39231362       0.07991266       0.12182820       0.00000000 NULL
P        4.85767320       5.81839917       8.80472132       0.00000000 NULL
P        1.81701810       1.09604280       2.10781545       0.00000000 NULL
P        4.28237768       4.80226904       6.81873407       0.00000000 NULL
P        2.70603632      -0.68069766       7.75044553       0.00000000 NULL
P        0.24067674       6.57900949       1.17610399       0.00000000 NULL
14
Lattice="5.050922273163599 0.0 0.0 0.0 7.400091732338604 -1.1025828577958003 0.0 -1.4434668879215293 10.257794501644334" Properties=species:S:1:pos:R:3:initial_magmoms:R:1:castep_labels:S:1 n_minim_iter=23 pbc="T T T"
P        1.35450294       5.14371350       5.88916721       0.00000000 NULL
P        3.87996408       0.81291134       3.26604443       0.00000000 NULL
P        1.78654816       0.59301498       5.69990426       0.00000000 NULL
P        4.31200930       5.36360986       3.45530738       0.00000000 NULL
P        4.59718320       0.02746197       5.51056122       0.00000000 NULL
P        2.07172206       5.92916287       3.64465041       0.00000000 NULL
P        2.19408762       2.30283121       4.17589560       0.00000000 NULL
P        4.71954875       3.65379363       4.97931603       0.00000000 NULL
P        2.45087757       0.07746668       0.07880349       0.00000000 NULL
P        4.97633871       5.87915817       9.07640814       0.00000000 NULL
P        1.85595935       1.08697853       2.15649954       0.00000000 NULL
P        4.38142049       4.86964631       6.99871209       0.00000000 NULL
P        2.79739286      -0.78594079       8.04264833       0.00000000 NULL
P        0.27193172       6.74256563       1.11256331       0.00000000 NULL
14
Lattice="4.911880133945746 0.0 0.0 0.0 7.251535869545067 -1.1139808313526076 0.0 -1.4582234900317992 10.011141972886724" Properties=species:S:1:pos:R:3:initial_magmoms:R:1:castep_labels:S:1 n_minim_iter=24 pbc="T T T"
P        1.31703439       5.01071747       5.71546990       0.00000000 NULL
P        3.77297446       0.78259491       3.18169123       0.00000000 NULL
P        1.73655306       0.55565461       5.55378526       0.00000000 NULL
P        4.19249313       5.23765777       3.34337588       0.00000000 NULL
P        4.46965312       0.00514158       5.37059455       0.00000000 NULL
P        2.01371306       5.78817079       3.52656659       0.00000000 NULL
P        2.13405276       2.23407834       4.06045778       0.00000000 NULL
P        4.58999283       3.55923404       4.83670336       0.00000000 NULL
P        2.38343711       0.07556191       0.07396228       0.00000000 NULL
P        4.83937717       5.71775047       8.82319886       0.00000000 NULL
P        1.80558698       1.05335540       2.09827492       0.00000000 NULL
P        4.26152705       4.73995697       6.79888622       0.00000000 NULL
P        2.72125089      -0.80774701       7.85024326       0.00000000 NULL
P        0.26531082       6.60105939       1.04691787       0.00000000 NULL
14
Lattice="4.930609375673673 0.0 0.0 0.0 7.262908407861182 -1.1230492204315679 0.0 -1.4700591972507393 10.050784792343274" Properties=species:S:1:pos:R:3:initial_magmoms:R:1:castep_labels:S:1 n_minim_iter=25 pbc="T T T"
P        1.32243415       5.01127412       5.73368782       0.00000000 NULL
P        3.78773884       0.78157509       3.19404774       0.00000000 NULL
P        1.74279624       0.55147839       5.57456200       0.00000000 NULL
P        4.20810093       5.24137081       3.35317357       0.00000000 NULL
P        4.48538773       0.00250508       5.38939346       0.00000000 NULL
P        2.02008304       5.79034412       3.53834210       0.00000000 NULL
P        2.14229459       2.23222841       4.07468089       0.00000000 NULL
P        4.60759928       3.56062079       4.85305468       0.00000000 NULL
P        2.39264935       0.07509325       0.07234462       0.00000000 NULL
P        4.85795403       5.71775595       8.85539094       0.00000000 NULL
P        1.81250852       1.05236177       2.10512509       0.00000000 NULL
P        4.27781320       4.74048743       6.82261047       0.00000000 NULL
P        2.73267070      -0.81763903       7.88321039       0.00000000 NULL
P        0.26736601       6.61048824       1.04452517       0.00000000 NULL
14
Lattice="4.932947967363917 0.0 0.0 0.0 7.25815759894219 -1.1304541395826684 0.0 -1.479713500356973 10.059276417750468" Properties=species:S:1:pos:R:3:initial_magmoms:R:1:castep_labels:S:1 n_minim_iter=26 pbc="T T T"
P        1.32337117       5.00000227       5.73259623       0.00000000 NULL
P        3.78984516       0.77844183       3.19622604       0.00000000 NULL
P        1.74313862       0.54539668       5.57754523       0.00000000 NULL
P        4.20961260       5.23304742       3.35127704       0.00000000 NULL
P        4.48623006      -0.00066405       5.39107497       0.00000000 NULL
P        2.01975608       5.77910814       3.53774730       0.00000000 NULL
P        2.14343934       2.22468992       4.07559312       0.00000000 NULL
P        4.60991332       3.55375417       4.85322916       0.00000000 NULL
P        2.39390248       0.07448445       0.07036689       0.00000000 NULL
P        4.86037646       5.70395965       8.85845538       0.00000000 NULL
P        1.81351436       1.04862839       2.10528384       0.00000000 NULL
P        4.27998835       4.72981571       6.82353843       0.00000000 NULL
P        2.73503321      -0.82678335       7.89179869       0.00000000 NULL
P        0.26855923       6.60522745       1.03702358       0.00000000 NULL
14
Lattice="4.944842456786566 0.0 0.0 0.0 7.226779883571996 -1.1792279138041484 0.0 -1.5433031661416743 10.117635311580617" Properties=species:S:1:pos:R:3:initial_magmoms:R:1:castep_labels:S:1 n_minim_iter=27 pbc="T T T"
P        1.32896494       4.92463993       5.72628763       0.00000000 NULL
P        3.80138617       0.75883678       3.21211976       0.00000000 NULL
P        1.74331963       0.50586578       5.59791074       0.00000000 NULL
P        4.21574085       5.17761093       3.34049665       0.00000000 NULL
P        4.48702497      -0.01796135       5.40047534       0.00000000 NULL
P        2.01460374       5.70143807       3.53793205       0.00000000 NULL
P        2.14954110       2.17327282       4.08296296       0.00000000 NULL
P        4.62196233       3.51020389       4.85544443       0.00000000 NULL
P        2.40064196       0.06993586       0.05484448       0.00000000 NULL
P        4.87306318       5.61354085       8.88356291       0.00000000 NULL
P        1.81925577       1.02340900       2.10653111       0.00000000 NULL
P        4.29167700       4.66006772       6.83187628       0.00000000 NULL
P        2.75000054      -0.88846716       7.95313663       0.00000000 NULL
P        0.27757931       6.57194387       0.98527076       0.00000000 NULL
14
Lattice="4.926800787005289 0.0 0.0 0.0 7.257516659237843 -1.1760144656372353 0.0 -1.5391346298238877 10.127196867014849" Properties=species:S:1:pos:R:3:initial_magmoms:R:1:castep_labels:S:1 n_minim_iter=28 pbc="T T T"
P        1.32802499       4.94188937       5.72832924       0.00000000 NULL
P        3.79142539       0.77649265       3.22285315       0.00000000 NULL
P        1.72827169       0.51889433       5.59809332       0.00000000 NULL
P        4.19167208       5.19948770       3.35308908       0.00000000 NULL
P        4.45582802       0.02313492       5.37885480       0.00000000 NULL
P        1.99242763       5.69524710       3.57232759       0.00000000 NULL
P        2.14200971       2.16966195       4.09054994       0.00000000 NULL
P        4.60541010       3.54872008       4.86063246       0.00000000 NULL
P        2.39378409       0.06306643       0.03135898       0.00000000 NULL
P        4.85718448       5.65531559       8.91982341       0.00000000 NULL
P        1.81741469       1.02474260       2.10522713       0.00000000 NULL
P        4.28081508       4.69363942       6.84595526       0.00000000 NULL
P        2.75256189      -0.89564242       7.98582655       0.00000000 NULL
P        0.28916149       6.61402445       0.96535585       0.00000000 NULL
14
Lattice="4.979328083589653 0.0 0.0 0.0 7.255873356870396 -1.3069059755310737 0.0 -1.7098473673282357 10.246189304481337" Properties=species:S:1:pos:R:3:initial_magmoms:R:1:castep_labels:S:1 n_minim_iter=29 pbc="T T T"
P        1.34504251       4.82346689       5.69899980       0.00000000 NULL
P        3.83470655       0.72255910       3.24028352       0.00000000 NULL
P        1.74296963       0.41903148       5.63962088       0.00000000 NULL
P        4.23263367       5.12699450       3.29966245       0.00000000 NULL
P        4.49779371      -0.06056473       5.41973220       0.00000000 NULL
P        2.00812967       5.60659072       3.51955112       0.00000000 NULL
P        2.16445542       2.08621841       4.09139871       0.00000000 NULL
P        4.65411946       3.45980757       4.84788461       0.00000000 NULL
P        2.42009380       0.05774936       0.02556328       0.00000000 NULL
P        4.90975784       5.48827662       8.91372004       0.00000000 NULL
P        1.83906390       0.98447123       2.10482678       0.00000000 NULL
P        4.32872794       4.56155476       6.83445654       0.00000000 NULL
P        2.78564851      -1.03332424       8.07876952       0.00000000 NULL
P        0.29598447       6.57935023       0.86051380       0.00000000 NULL
14
Lattice="4.935337084950602 0.0 0.0 0.0 7.2080392995521 -1.255733799234737 0.0 -1.6430714409401495 10.141356004499217" Properties=species:S:1:pos:R:3:initial_magmoms:R:1:castep_labels:S:1 n_minim_iter=30 pbc="T T T"
P        1.33356371       4.82769051       5.67080874       0.00000000 NULL
P        3.80123225       0.73727735       3.21481345       0.00000000 NULL
P        1.72611292       0.44851995       5.58807078       0.00000000 NULL
P        4.19378146       5.11644790       3.29755142       0.00000000 NULL
P        4.45678856      -0.02622986       5.36588644       0.00000000 NULL
P        1.98912002       5.59119771       3.51973575       0.00000000 NULL
P        2.14517150       2.09438893       4.06575750       0.00000000 NULL
P        4.61284004       3.47057893       4.81986470       0.00000000 NULL
P        2.39896580       0.05660988       0.02310431       0.00000000 NULL
P        4.86663435       5.50835798       8.86251789       0.00000000 NULL
P        1.82373894       0.98984849       2.09059123       0.00000000 NULL
P        4.29140748       4.57511936       6.79503097       0.00000000 NULL
P        2.76234623      -0.98355463       8.00015581       0.00000000 NULL
P        0.29467769       6.54852248       0.88546638       0.00000000 NULL
14
Lattice="4.95596957337757 0.0 0.0 0.0 7.230042417943665 -1.2528799722737824 0.0 -1.63936552348279 10.187736830669406" Properties=species:S:1:pos:R:3:initial_magmoms:R:1:castep_labels:S:1 n_minim_iter=31 pbc="T T T"
P        1.33967510       4.84758652       5.70360939       0.00000000 NULL
P        3.81765988       0.74309037       3.23124746       0.00000000 NULL
P        1.73253932       0.45498378       5.61514296       0.00000000 NULL
P        4.21052411       5.13569311       3.31971389       0.00000000 NULL
P        4.47451953      -0.01949608       5.39019782       0.00000000 NULL
P        1.99653474       5.61017297       3.54465903       0.00000000 NULL
P        2.15394846       2.10365811       4.08803665       0.00000000 NULL
P        4.63193324       3.48701878       4.84682020       0.00000000 NULL
P        2.40917066       0.05589386       0.02224406       0.00000000 NULL
P        4.88715545       5.53478303       8.91261279       0.00000000 NULL
P        1.83179061       0.99485368       2.10121581       0.00000000 NULL
P        4.30977540       4.59582321       6.83364104       0.00000000 NULL
P        2.77463651      -0.97964210       8.03797550       0.00000000 NULL
P        0.29665172       6.57031899       0.89688135       0.00000000 NULL
