9
Lattice="4.217909999999999 -2.9342434529418023e-16 1.0727897438258132e-15 1.8887849963408285 5.894804071188269 -3.8939738026369046e-15 2.057764343539613 2.578323548507146 8.247878324622063" Properties=species:S:1:pos:R:3:initial_magmoms:R:1:castep_labels:S:1 n_minim_iter=1 pbc="T T T"
P        2.61084105       1.07700245       2.78533985       0.00000000 NULL
P        4.03087384       7.53455565       6.51157374       0.00000000 NULL
P        4.38355838       3.03300277       7.22515956       0.00000000 NULL
P        7.23164032       6.91310886       8.13127147       0.00000000 NULL
P        4.09593698       5.44885882       1.20161277       0.00000000 NULL
P        6.05952508       5.69408475       4.57866037       0.00000000 NULL
P        1.47719723       3.10020089       1.37738331       0.00000000 NULL
P        2.16356589       2.83565898       3.64621628       0.00000000 NULL
P        3.03780504       4.31445885       5.95359323       0.00000000 NULL
9
Lattice="4.216386755113017 -0.000810304497890163 -0.0011622214376645849 1.8869704321748513 5.897240005586574 -0.00024138370200483278 2.0542532285116977 2.5795428459556473 8.248606969562719" Properties=species:S:1:pos:R:3:initial_magmoms:R:1:castep_labels:S:1 n_minim_iter=2 pbc="T T T"
P        2.60909116       1.07697281       2.78502269       0.00000000 NULL
P        4.02631827       7.53782323       6.51158076       0.00000000 NULL
P        4.37936686       3.03392488       7.22511919       0.00000000 NULL
P        7.22541954       6.91529568       8.13072162       0.00000000 NULL
P        4.09288549       5.45083382       1.20097990       0.00000000 NULL
P        6.05500783       5.69579103       4.57792720       0.00000000 NULL
P        1.47579089       3.10123098       1.37758200       0.00000000 NULL
P        2.16113628       2.83700346       3.64626790       0.00000000 NULL
P        3.03416934       4.31624345       5.95372384       0.00000000 NULL
9
Lattice="4.144417829685501 -0.03905419495276483 -0.05593133292996024 1.8012943348418677 6.013313754415459 -0.011225088066932017 1.888666675107268 2.6380926464453798 8.281535771221124" Properties=species:S:1:pos:R:3:initial_magmoms:R:1:castep_labels:S:1 n_minim_iter=3 pbc="T T T"
P        2.52650802       1.07572233       2.76950260       0.00000000 NULL
P        3.81131323       7.69401268       6.51100812       0.00000000 NULL
P        4.18162002       3.07843976       7.22206933       0.00000000 NULL
P        6.93192392       7.02022367       8.10375265       0.00000000 NULL
P        3.94886376       5.54539307       1.17141933       0.00000000 NULL
P        5.84179199       5.77759131       4.54286226       0.00000000 NULL
P        1.40929363       3.15017570       1.38696857       0.00000000 NULL
P        2.04646897       2.90151328       3.64821511       0.00000000 NULL
P        2.86270490       4.40174310       5.95899743       0.00000000 NULL
9
Lattice="4.042644317831075 -0.0564044118620377 -0.09752267877991515 1.7314719793415507 6.052435621709687 -0.030473045071414323 1.7470797904730755 2.64926574963686 8.177337093890545" Properties=species:S:1:pos:R:3:initial_magmoms:R:1:castep_labels:S:1 n_minim_iter=4 pbc="T T T"
P        2.43789635       1.06906922       2.71493243       0.00000000 NULL
P        3.62416747       7.74422301       6.39834778       0.00000000 NULL
P        3.99008436       3.08185157       7.10597534       0.00000000 NULL
P        6.64677483       7.04138858       7.94983767       0.00000000 NULL
P        3.80938450       5.57709148       1.11929177       0.00000000 NULL
P        5.62825333       5.79501748       4.43656932       0.00000000 NULL
P        1.35122967       3.15767616       1.36884011       0.00000000 NULL
P        1.94341390       2.92215337       3.58696595       0.00000000 NULL
P        2.70990400       4.42541715       5.86387710       0.00000000 NULL
9
Lattice="3.894037829796805 -0.0975292122854303 -0.15067942284109798 1.6074512330665822 6.140684227505048 -0.09228287964225014 1.54549641605196 2.622678885867863 8.04626884817533" Properties=species:S:1:pos:R:3:initial_magmoms:R:1:castep_labels:S:1 n_minim_iter=5 pbc="T T T"
P        2.30938268       1.03972285       2.64529800       0.00000000 NULL
P        3.33458190       7.81122007       6.21752270       0.00000000 NULL
P        3.71194758       3.04404150       6.95594309       0.00000000 NULL
P        6.21870942       7.03746097       7.72942410       0.00000000 NULL
P        3.58799962       5.63778806       1.02159401       0.00000000 NULL
P        5.30284675       5.80665667       4.27428221       0.00000000 NULL
P        1.25733684       3.16931548       1.33270589       0.00000000 NULL
P        1.78964587       2.94013224       3.49775599       0.00000000 NULL
P        2.48091636       4.44131739       5.72589647       0.00000000 NULL
9
Lattice="3.648631196304158 -0.18099088280656955 -0.2227083200845504 1.3809147345354096 6.273345553325569 -0.24582604696729135 1.2339047057280348 2.4866284737772535 7.759710774868422" Properties=species:S:1:pos:R:3:initial_magmoms:R:1:castep_labels:S:1 n_minim_iter=6 pbc="T T T"
P        2.10072617       0.95612538       2.51508727       0.00000000 NULL
P        2.84901851       7.83533882       5.81434831       0.00000000 NULL
P        3.26872302       2.88812915       6.65129797       0.00000000 NULL
P        5.51936241       6.90986048       7.28021325       0.00000000 NULL
P        3.21005692       5.71003063       0.81249743       0.00000000 NULL
P        4.76105718       5.75485193       3.94251329       0.00000000 NULL
P        1.09407026       3.15996122       1.23473582       0.00000000 NULL
P        1.54175962       2.92148433       3.30749718       0.00000000 NULL
P        2.10923414       4.39784913       5.42501609       0.00000000 NULL
9
Lattice="3.557690666005935 -0.2886145698612186 -0.2963056501512843 1.1897803438555261 6.463465874012473 -0.455590530446889 0.9798346353026591 2.2909737887888553 7.623175435049368" Properties=species:S:1:pos:R:3:initial_magmoms:R:1:castep_labels:S:1 n_minim_iter=7 pbc="T T T"
P        1.97573795       0.84979545       2.44271257       0.00000000 NULL
P        2.45615732       7.85880831       5.46869565       0.00000000 NULL
P        2.96968521       2.67456469       6.47080314       0.00000000 NULL
P        5.04967354       6.72743627       6.94692115       0.00000000 NULL
P        2.94848293       5.81191087       0.57112267       0.00000000 NULL
P        4.40671587       5.69827670       3.65299524       0.00000000 NULL
P        0.96612598       3.16609221       1.12214572       0.00000000 NULL
P        1.35893988       2.88733369       3.17762931       0.00000000 NULL
P        1.82395810       4.33710024       5.20264244       0.00000000 NULL
9
Lattice="3.4880551706688596 -0.3059064772589809 -0.3197995842115503 1.134430920816065 6.368415944377723 -0.4762919255679771 0.8893507983105541 2.2301060125098053 7.363171460313216" Properties=species:S:1:pos:R:3:initial_magmoms:R:1:castep_labels:S:1 n_minim_iter=8 pbc="T T T"
P        1.91362481       0.82476509       2.35440801       0.00000000 NULL
P        2.31357926       7.72154934       5.23179172       0.00000000 NULL
P        2.84727605       2.59726624       6.23081994       0.00000000 NULL
P        4.86383146       6.56554284       6.66483605       0.00000000 NULL
P        2.84671512       5.71626300       0.49477297       0.00000000 NULL
P        4.25995808       5.58362537       3.47671856       0.00000000 NULL
P        0.92248828       3.10355739       1.06415154       0.00000000 NULL
P        1.29239620       2.83440914       3.05865635       0.00000000 NULL
P        1.72183000       4.25725602       4.98953749       0.00000000 NULL
9
Lattice="3.509713632217724 -0.32864861061322737 -0.32362429186692665 1.112345991771397 6.4576803426409795 -0.5027530185401632 0.878536368550754 2.2278812020206544 7.461736345792493" Properties=species:S:1:pos:R:3:initial_magmoms:R:1:castep_labels:S:1 n_minim_iter=9 pbc="T T T"
P        1.91924561       0.81996057       2.39121409       0.00000000 NULL
P        2.28402680       7.80062561       5.27739164       0.00000000 NULL
P        2.84888684       2.59518650       6.31282652       0.00000000 NULL
P        4.85943159       6.60055674       6.74358955       0.00000000 NULL
P        2.83439833       5.78232798       0.48133090       0.00000000 NULL
P        4.25632327       5.63018586       3.50965612       0.00000000 NULL
P        0.91374937       3.13566490       1.06692817       0.00000000 NULL
P        1.28467044       2.85801245       3.09901165       0.00000000 NULL
P        1.70819691       4.29264642       5.04278649       0.00000000 NULL
9
Lattice="3.5027641860979006 -0.33920158538542966 -0.3285919485718749 1.0944855518344752 6.458056256682797 -0.5166942747993633 0.8589812016895327 2.2085703603690905 7.435923656071385" Properties=species:S:1:pos:R:3:initial_magmoms:R:1:castep_labels:S:1 n_minim_iter=10 pbc="T T T"
P        1.90912931       0.81111659       2.38430019       0.00000000 NULL
P        2.24686047       7.78453607       5.23920904       0.00000000 NULL
P        2.82728268       2.57253378       6.28677408       0.00000000 NULL
P        4.82357802       6.56639367       6.70706275       0.00000000 NULL
P        2.81067010       5.77534405       0.45988307       0.00000000 NULL
P        4.22715693       5.61225507       3.48197410       0.00000000 NULL
P        0.90273542       3.12832116       1.05466956       0.00000000 NULL
P        1.26976838       2.84949810       3.08591986       0.00000000 NULL
P        1.68520515       4.27963808       5.01250456       0.00000000 NULL
9
Lattice="3.487171484408806 -0.3690996449316689 -0.3405046840033108 1.0457186354857197 6.463959927078867 -0.5547851111729495 0.8098033460951969 2.1565904415464563 7.38323327003179" Properties=species:S:1:pos:R:3:initial_magmoms:R:1:castep_labels:S:1 n_minim_iter=11 pbc="T T T"
P        1.88419655       0.78665209       2.37214043       0.00000000 NULL
P        2.14890038       7.74561105       5.14945241       0.00000000 NULL
P        2.77411329       2.51152032       6.23191727       0.00000000 NULL
P        4.73303855       6.47678846       6.62596383       0.00000000 NULL
P        2.74846135       5.75974284       0.40484919       0.00000000 NULL
P        4.15253628       5.56632408       3.41756216       0.00000000 NULL
P        0.87372101       3.11072521       1.02450054       0.00000000 NULL
P        1.23125321       2.82769280       3.05824833       0.00000000 NULL
P        1.62629820       4.24647885       4.94312200       0.00000000 NULL
9
Lattice="3.4457465948261703 -0.4653498622087318 -0.3650493105289073 0.892652571350558 6.4718310430740145 -0.660496903519617 0.6827622391064281 1.9993970457993349 7.27653621501377" Properties=species:S:1:pos:R:3:initial_magmoms:R:1:castep_labels:S:1 n_minim_iter=12 pbc="T T T"
P        1.81668650       0.70937489       2.36243681       0.00000000 NULL
P        1.85841353       7.61877036       4.92978967       0.00000000 NULL
P        2.63853856       2.32298374       6.11900412       0.00000000 NULL
P        4.48581371       6.19116319       6.45026004       0.00000000 NULL
P        2.56231469       5.69936178       0.25782717       0.00000000 NULL
P        3.93891206       5.41538784       3.26889766       0.00000000 NULL
P        0.78875060       3.05238500       0.94809292       0.00000000 NULL
P        1.12180795       2.75799633       3.00340746       0.00000000 NULL
P        1.46401430       4.14340185       4.77431763       0.00000000 NULL
9
Lattice="3.4101042915591386 -0.5100881763067979 -0.3192415025997416 0.8141671973788117 6.3907889015950285 -0.6061104236705905 0.727600539727671 1.9982818082203893 7.306606204783063" Properties=species:S:1:pos:R:3:initial_magmoms:R:1:castep_labels:S:1 n_minim_iter=13 pbc="T T T"
P        1.81338946       0.69889141       2.44089855       0.00000000 NULL
P        1.76007525       7.53822415       4.98518064       0.00000000 NULL
P        2.67563271       2.28833116       6.18415515       0.00000000 NULL
P        4.47089565       6.05661502       6.58288145       0.00000000 NULL
P        2.47428059       5.60271849       0.30457705       0.00000000 NULL
P        3.87827162       5.32243432       3.37053356       0.00000000 NULL
P        0.76490388       2.99125683       0.97721690       0.00000000 NULL
P        1.10866717       2.73694312       3.05752342       0.00000000 NULL
P        1.45859375       4.12769903       4.78612066       0.00000000 NULL
9
Lattice="3.3938322903503386 -0.5605448549692348 -0.2798522406284573 0.7363640800667786 6.4165386987231114 -0.6472925864071455 0.7658422882181531 1.9125104959954236 7.2856635897813815" Properties=species:S:1:pos:R:3:initial_magmoms:R:1:castep_labels:S:1 n_minim_iter=14 pbc="T T T"
P        1.81749247       0.64386318       2.45929572       0.00000000 NULL
P        1.70163159       7.49503352       4.92889652       0.00000000 NULL
P        2.69662702       2.18571158       6.18360233       0.00000000 NULL
P        4.44487788       5.93767074       6.57329251       0.00000000 NULL
P        2.40137270       5.59027290       0.28116429       0.00000000 NULL
P        3.82807949       5.25217663       3.36335150       0.00000000 NULL
P        0.73944161       2.97262873       0.96254515       0.00000000 NULL
P        1.09837600       2.70121397       3.04404957       0.00000000 NULL
P        1.45024178       4.07919857       4.74948452       0.00000000 NULL
9
Lattice="3.379694994578108 -0.5792561113480676 -0.25547735069470334 0.7038831825553243 6.404705713718996 -0.6336751199993048 0.7951710861895815 1.9056522724327944 7.2741635746265345" Properties=species:S:1:pos:R:3:initial_magmoms:R:1:castep_labels:S:1 n_minim_iter=15 pbc="T T T"
P        1.82058985       0.63120257       2.47236992       0.00000000 NULL
P        1.68495897       7.47893772       4.93328352       0.00000000 NULL
P        2.71423777       2.16639748       6.18961678       0.00000000 NULL
P        4.44155188       5.90120283       6.59681614       0.00000000 NULL
P        2.36904624       5.57031050       0.30086820       0.00000000 NULL
P        3.80850243       5.22308535       3.38836321       0.00000000 NULL
P        0.73019704       2.96175121       0.96915906       0.00000000 NULL
P        1.09874363       2.69255572       3.04701820       0.00000000 NULL
P        1.45477829       4.07223269       4.74591016       0.00000000 NULL
9
Lattice="3.3615410093158156 -0.6219643618734246 -0.20383198912662073 0.6360662438209035 6.407321004684812 -0.6063613613672102 0.8611972334126848 1.9001835833638137 7.286375876908435" Properties=species:S:1:pos:R:3:initial_magmoms:R:1:castep_labels:S:1 n_minim_iter=16 pbc="T T T"
P        1.83389588       0.60695818       2.51236293       0.00000000 NULL
P        1.65642733       7.47783377       4.96916333       0.00000000 NULL
P        2.76130977       2.13577421       6.23410652       0.00000000 NULL
P        4.44919768       5.85022478       6.68204511       0.00000000 NULL
P        2.30785430       5.55151279       0.34702497       0.00000000 NULL
P        3.77986933       5.18390828       3.46030917       0.00000000 NULL
P        0.71274412       2.95215250       0.98847604       0.00000000 NULL
P        1.10348342       2.68572320       3.06925940       0.00000000 NULL
P        1.46931719       4.07502899       4.76431542       0.00000000 NULL
9
Lattice="3.3395757704811664 -0.6677666495172802 -0.14918101659528538 0.5622185028248522 6.3890238931827 -0.5731447891427635 0.9293499843442604 1.8910404857429333 7.283289431829972" Properties=species:S:1:pos:R:3:initial_magmoms:R:1:castep_labels:S:1 n_minim_iter=17 pbc="T T T"
P        1.84622851       0.57832634       2.54876850       0.00000000 NULL
P        1.62347775       7.45495717       4.99911014       0.00000000 NULL
P        2.80775317       2.09714206       6.26740502       0.00000000 NULL
P        4.45078810       5.77762883       6.75984727       0.00000000 NULL
P        2.23965104       5.51225880       0.39796352       0.00000000 NULL
P        3.74512155       5.12392805       3.53034580       0.00000000 NULL
P        0.69283631       2.93301577       1.00806870       0.00000000 NULL
P        1.10657819       2.67022454       3.08627335       0.00000000 NULL
P        1.48165223       4.06700708       4.77464609       0.00000000 NULL
9
Lattice="3.3373416707155443 -0.6954584483475251 -0.12032380488755057 0.5225169770453326 6.393399379017317 -0.5560095653499066 0.9677612124385309 1.8907629063091205 7.306393791662407" Properties=species:S:1:pos:R:3:initial_magmoms:R:1:castep_labels:S:1 n_minim_iter=18 pbc="T T T"
P        1.85796439       0.56330531       2.57741191       0.00000000 NULL
P        1.60802712       7.46012930       5.03301042       0.00000000 NULL
P        2.84013883       2.08078606       6.30648876       0.00000000 NULL
P        4.46210280       5.75008584       6.82618242       0.00000000 NULL
P        2.20781998       5.50230272       0.42785526       0.00000000 NULL
P        3.73570978       5.10184259       3.58043178       0.00000000 NULL
P        0.68343818       2.92865989       1.02261837       0.00000000 NULL
P        1.11034577       2.66772877       3.10620278       0.00000000 NULL
P        1.49097976       4.07255723       4.79692265       0.00000000 NULL
9
Lattice="3.3254998260522766 -0.7432752434472587 -0.06941277727871316 0.45038709827739576 6.373847849115059 -0.52623018386907 1.032308124669819 1.878016937821008 7.318065805092688" Properties=species:S:1:pos:R:3:initial_magmoms:R:1:castep_labels:S:1 n_minim_iter=19 pbc="T T T"
P        1.87436802       0.53116056       2.61872505       0.00000000 NULL
P        1.57398454       7.43570255       5.06962117       0.00000000 NULL
P        2.89075775       2.03755434       6.34974799       0.00000000 NULL
P        4.47034949       5.67017621       6.91508722       0.00000000 NULL
P        2.14518325       5.45967694       0.47574073       0.00000000 NULL
P        3.70964405       5.03637059       3.65203386       0.00000000 NULL
P        0.66505965       2.90648219       1.04375460       0.00000000 NULL
P        1.11330208       2.64993364       3.12766764       0.00000000 NULL
P        1.50228822       4.06418407       4.81418271       0.00000000 NULL
9
Lattice="3.337899894735382 -0.8068950484735234 -0.00976331245641105 0.36702704033524625 6.387187625251647 -0.512521965664513 1.1161092265724604 1.8470812795847513 7.401409821707515" Properties=species:S:1:pos:R:3:initial_magmoms:R:1:castep_labels:S:1 n_minim_iter=20 pbc="T T T"
P        1.90980643       0.48298502       2.69800246       0.00000000 NULL
P        1.53775952       7.43479261       5.14199303       0.00000000 NULL
P        2.97753333       1.97268914       6.45837304       0.00000000 NULL
P        4.51494919       5.57488285       7.07990499       0.00000000 NULL
P        2.08540382       5.43394261       0.52086080       0.00000000 NULL
P        3.70805439       4.96882789       3.75817345       0.00000000 NULL
P        0.64944595       2.88594858       1.07372517       0.00000000 NULL
P        1.12333552       2.63202580       3.17741301       0.00000000 NULL
P        1.52485090       4.06800305       4.86714299       0.00000000 NULL
9
Lattice="3.307116166518878 -0.8108376834404223 -0.0029737872234125366 0.3477319618151128 6.3102946593691795 -0.5143954635344596 1.1119574383978095 1.8054225215448394 7.317587120376668" Properties=species:S:1:pos:R:3:initial_magmoms:R:1:castep_labels:S:1 n_minim_iter=21 pbc="T T T"
P        1.89517007       0.46013847       2.68027249       0.00000000 NULL
P        1.50295767       7.33698211       5.07421425       0.00000000 NULL
P        2.96157425       1.92093700       6.38775575       0.00000000 NULL
P        4.47099381       5.47015402       7.00778149       0.00000000 NULL
P        2.05078188       5.35833408       0.50771499       0.00000000 NULL
P        3.66779842       4.88267191       3.71534410       0.00000000 NULL
P        0.63982995       2.83892499       1.06248763       0.00000000 NULL
P        1.10855121       2.59029526       3.13852754       0.00000000 NULL
P        1.50669119       4.01917701       4.79797821       0.00000000 NULL
9
Lattice="3.327306269622887 -0.820143130676812 0.0018725714059082365 0.3437681445606274 6.351601694181712 -0.5250694676911494 1.1255959932301745 1.8028012492671015 7.37622131710766" Properties=species:S:1:pos:R:3:initial_magmoms:R:1:castep_labels:S:1 n_minim_iter=22 pbc="T T T"
P        1.90967027       0.45481288       2.70794559       0.00000000 NULL
P        1.50729292       7.37685990       5.10742014       0.00000000 NULL
P        2.98813874       1.91850431       6.44038454       0.00000000 NULL
P        4.50182830       5.48516295       7.06689674       0.00000000 NULL
P        2.05813952       5.38865688       0.50727477       0.00000000 NULL
P        3.69000351       4.90245741       3.74369948       0.00000000 NULL
P        0.64330034       2.85090786       1.06962120       0.00000000 NULL
P        1.11568536       2.60012747       3.16243151       0.00000000 NULL
P        1.51770334       4.04066997       4.83039760       0.00000000 NULL
9
Lattice="3.3261604462023575 -0.8236091948442346 0.0036178172435026735 0.33841099297363914 6.347104067285365 -0.5289157093831994 1.1263309794846872 1.7933468795072225 7.373669086780393" Properties=species:S:1:pos:R:3:initial_magmoms:R:1:castep_labels:S:1 n_minim_iter=23 pbc="T T T"
P        1.90978863       0.44839139       2.71156281       0.00000000 NULL
P        1.49882718       7.36781799       5.10103539       0.00000000 NULL
P        2.99046806       1.90679668       6.43845283       0.00000000 NULL
P        4.49865138       5.46722906       7.06585689       0.00000000 NULL
P        2.05217502       5.38129961       0.50307091       0.00000000 NULL
P        3.68616030       4.88994772       3.74049212       0.00000000 NULL
P        0.64185654       2.84402294       1.06888074       0.00000000 NULL
P        1.11332763       2.59406764       3.15994332       0.00000000 NULL
P        1.51527979       4.03727804       4.82300598       0.00000000 NULL
9
Lattice="3.326312238316122 -0.8418210682516015 0.011380731646137133 0.3130266858550257 6.339926563432215 -0.5493734146620451 1.1304524101856905 1.7514018026726732 7.378224849136055" Properties=species:S:1:pos:R:3:initial_magmoms:R:1:castep_labels:S:1 n_minim_iter=24 pbc="T T T"
P        1.91322821       0.41843897       2.73512531       0.00000000 NULL
P        1.45937539       7.34068308       5.08139620       0.00000000 NULL
P        3.00561574       1.85462402       6.44343065       0.00000000 NULL
P        4.48952594       5.39314525       7.07581206       0.00000000 NULL
P        2.02667557       5.35823001       0.48302321       0.00000000 NULL
P        3.67287992       4.84132581       3.73217292       0.00000000 NULL
P        0.63577226       2.81714927       1.06728135       0.00000000 NULL
P        1.10319651       2.57037832       3.15496839       0.00000000 NULL
P        1.50524489       4.02985411       4.79788509       0.00000000 NULL
9
Lattice="3.3221198133199676 -0.9112053625769112 0.0038287887286762973 0.21418024055477417 6.3147208019541425 -0.6037898934530754 1.071226469157253 1.6487102256829822 7.362224964498771" Properties=species:S:1:pos:R:3:initial_magmoms:R:1:castep_labels:S:1 n_minim_iter=25 pbc="T T T"
P        1.89815597       0.32303573       2.80807392       0.00000000 NULL
P        1.24390821       7.28282925       5.00810633       0.00000000 NULL
P        2.99996714       1.70397049       6.41562120       0.00000000 NULL
P        4.37267374       5.17025352       7.06263705       0.00000000 NULL
P        1.91434495       5.28124357       0.40022373       0.00000000 NULL
P        3.57242168       4.69636097       3.65982435       0.00000000 NULL
P        0.60000744       2.71976858       1.06163888       0.00000000 NULL
P        1.02726868       2.50112033       3.12198197       0.00000000 NULL
P        1.41655413       4.04923202       4.67452138       0.00000000 NULL
9
Lattice="3.4532388958227407 -0.9694566370422104 -0.03592744910508608 0.1914855661532969 6.6522399746199 -0.7238075604974672 1.021845834613083 1.636311446540791 7.712600477376318" Properties=species:S:1:pos:R:3:initial_magmoms:R:1:castep_labels:S:1 n_minim_iter=26 pbc="T T T"
P        1.94050328       0.29339721       2.95324799       0.00000000 NULL
P        1.18000262       7.58796846       5.16502477       0.00000000 NULL
P        3.04393417       1.71623082       6.68419429       0.00000000 NULL
P        4.42301008       5.33494925       7.30870402       0.00000000 NULL
P        1.95498753       5.54084519       0.31543765       0.00000000 NULL
P        3.62265656       4.92110812       3.70252960       0.00000000 NULL
P        0.59792448       2.82852042       1.06313177       0.00000000 NULL
P        1.01271546       2.56930501       3.24749213       0.00000000 NULL
P        1.41835270       4.19707158       4.83038076       0.00000000 NULL
9
Lattice="3.308698781230449 -0.924222025698796 -0.04562002119243407 0.18997865189824387 6.366935591773887 -0.6637954192603925 0.9600277337968203 1.6147714697364475 7.357689016886112" Properties=species:S:1:pos:R:3:initial_magmoms:R:1:castep_labels:S:1 n_minim_iter=27 pbc="T T T"
P        1.85194072       0.30005416       2.81568858       0.00000000 NULL
P        1.12157692       7.29838895       4.95591832       0.00000000 NULL
P        2.90269885       1.68192770       6.37536176       0.00000000 NULL
P        4.22272507       5.16192941       6.97952083       0.00000000 NULL
P        1.87603341       5.31281653       0.31592717       0.00000000 NULL
P        3.46640019       4.73796122       3.54277932       0.00000000 NULL
P        0.57196872       2.71653992       1.02584415       0.00000000 NULL
P        0.96235684       2.48190240       3.10150988       0.00000000 NULL
P        1.34917335       4.05540063       4.61358005       0.00000000 NULL
