9
Lattice="4.513559999999999 0.0 0.0 0.0 7.270670000000002 1.2720539442792658e-15 0.0 -3.635335000000002 6.296584922533405" Properties=species:S:1:pos:R:3:initial_magmoms:R:1:castep_labels:S:1 n_minim_iter=1 pbc="T T T"
P        1.38807136       2.29143308       0.04207000       0.00000000 NULL
P        4.39711136       6.08852013       1.96340363       0.00000000 NULL
P        2.89259136       2.52605287       4.29111066       0.00000000 NULL
P        1.85740802       1.46347572       2.64405124       0.00000000 NULL
P        0.35288802       0.61378196       6.24196583       0.00000000 NULL
P        3.36192802      -2.07725659       3.70715215       0.00000000 NULL
P        2.63140367       6.08370331       0.03789914       0.00000000 NULL
P        1.12688367       4.19599709       5.24969142       0.00000000 NULL
P        4.13592367       0.62630569       1.00899373       0.00000000 NULL
9
Lattice="4.510562362668644 0.0 0.0 0.0 7.268019153599268 -1.783438471164927e-17 0.0 -3.634009576799634 6.294289222208841" Properties=species:S:1:pos:R:3:initial_magmoms:R:1:castep_labels:S:1 n_minim_iter=2 pbc="T T T"
P        1.38723294       2.29078305       0.04222246       0.00000000 NULL
P        4.39427452       6.08606227       1.96276446       0.00000000 NULL
P        2.89075373       2.52518450       4.28930168       0.00000000 NULL
P        1.85620396       1.46293334       2.64310366       0.00000000 NULL
P        0.35268318       0.61354835       6.23967420       0.00000000 NULL
P        3.35972475      -2.07648060       3.70579995       0.00000000 NULL
P        2.62954307       6.08151346       0.03804435       0.00000000 NULL
P        1.12602228       4.19431541       5.24772235       0.00000000 NULL
P        4.13306385       0.62620094       1.00852189       0.00000000 NULL
9
Lattice="4.351351456501112 0.0 0.0 0.0 7.128037794393864 6.254811020240835e-16 0.0 -3.5640188971969327 6.173061809080686" Properties=species:S:1:pos:R:3:initial_magmoms:R:1:castep_labels:S:1 n_minim_iter=3 pbc="T T T"
P        1.34267568       2.25658861       0.05039914       0.00000000 NULL
P        4.24357665       5.95609690       1.92906288       0.00000000 NULL
P        2.79312616       2.47937224       4.19359917       0.00000000 NULL
P        1.79222950       1.43426891       2.59305633       0.00000000 NULL
P        0.34177901       0.60123214       6.11864634       0.00000000 NULL
P        3.24267998      -2.03549999       3.63442033       0.00000000 NULL
P        2.53077416       5.96586841       0.04584588       0.00000000 NULL
P        1.08032368       4.10540025       5.14367004       0.00000000 NULL
P        3.98122465       0.62078910       0.98354527       0.00000000 NULL
9
Lattice="4.280632261229568 0.0 0.0 0.0 7.16623143035151 2.412461506667555e-16 0.0 -3.583115715175755 6.2061384680829015" Properties=species:S:1:pos:R:3:initial_magmoms:R:1:castep_labels:S:1 n_minim_iter=4 pbc="T T T"
P        1.32582806       2.27857398       0.06024428       0.00000000 NULL
P        4.17958290       5.97477171       1.94318019       0.00000000 NULL
P        2.75270548       2.49600251       4.20271337       0.00000000 NULL
P        1.76399382       1.44078858       2.60642941       0.00000000 NULL
P        0.33711640       0.60548770       6.15068266       0.00000000 NULL
P        3.19087124      -2.04627521       3.65516425       0.00000000 NULL
P        2.48377749       5.99780804       0.05574455       0.00000000 NULL
P        1.05690007       4.11905157       5.16638124       0.00000000 NULL
P        3.91065491       0.63248860       0.98401206       0.00000000 NULL
9
Lattice="4.149462675782461 0.0 0.0 0.0 7.142375408959388 1.4343518789050585e-15 0.0 -3.5711877044796947 6.185478547524097" Properties=species:S:1:pos:R:3:initial_magmoms:R:1:castep_labels:S:1 n_minim_iter=5 pbc="T T T"
P        1.29440445       2.28779106       0.07845799       0.00000000 NULL
P        4.06071290       5.93053362       1.94205556       0.00000000 NULL
P        2.67755868       2.49523950       4.16496438       0.00000000 NULL
P        1.71184655       1.43340554       2.59592258       0.00000000 NULL
P        0.32869232       0.60635038       6.12888225       0.00000000 NULL
P        3.09500077      -2.03975486       3.64615164       0.00000000 NULL
P        2.39655894       5.97724686       0.07158127       0.00000000 NULL
P        1.01340472       4.09176113       5.14065637       0.00000000 NULL
P        3.77971317       0.64455619       0.97324028       0.00000000 NULL
9
Lattice="4.115807134872517 0.0 0.0 0.0 7.2208455298428165 8.934569224012622e-17 0.0 -3.610422764921408 6.2534356656471815" Properties=species:S:1:pos:R:3:initial_magmoms:R:1:castep_labels:S:1 n_minim_iter=6 pbc="T T T"
P        1.29583421       2.32928829       0.10287334       0.00000000 NULL
P        4.03970564       5.96711082       1.96578554       0.00000000 NULL
P        2.66776993       2.53487026       4.18477616       0.00000000 NULL
P        1.69902810       1.44444548       2.61843032       0.00000000 NULL
P        0.32709239       0.62057321       6.19514636       0.00000000 NULL
P        3.07096381      -2.06501761       3.69329402       0.00000000 NULL
P        2.36412641       6.03917390       0.08868082       0.00000000 NULL
P        0.99219070       4.12445909       5.18573698       0.00000000 NULL
P        3.73606212       0.66763638       0.97901724       0.00000000 NULL
9
Lattice="4.076920452829549 0.0 0.0 0.0 7.105548668130731 9.748034290548484e-16 0.0 -3.552774334065366 6.153585654427894" Properties=species:S:1:pos:R:3:initial_magmoms:R:1:castep_labels:S:1 n_minim_iter=7 pbc="T T T"
P        1.28720011       2.29550061       0.10880734       0.00000000 NULL
P        4.00514708       5.86356880       1.93355756       0.00000000 NULL
P        2.64617360       2.49925465       4.11122014       0.00000000 NULL
P        1.68373552       1.41973790       2.57405854       0.00000000 NULL
P        0.32476204       0.61370565       6.09608486       0.00000000 NULL
P        3.04270900      -2.03344249       3.63702729       0.00000000 NULL
P        2.33742067       5.94144875       0.09022512       0.00000000 NULL
P        0.97844719       4.05668740       5.10033238       0.00000000 NULL
P        3.69639416       0.66018791       0.96302754       0.00000000 NULL
9
Lattice="4.095957772188408 0.0 0.0 0.0 7.133937228381421 8.471690920768003e-17 0.0 -3.56696861419071 6.178170868781857" Properties=species:S:1:pos:R:3:initial_magmoms:R:1:castep_labels:S:1 n_minim_iter=8 pbc="T T T"
P        1.29610783       2.30698236       0.11459236       0.00000000 NULL
P        4.02674635       5.88120650       1.94060853       0.00000000 NULL
P        2.66142709       2.51271804       4.12296935       0.00000000 NULL
P        1.69146125       1.42400137       2.58199495       0.00000000 NULL
P        0.32614199       0.61889507       6.12039414       0.00000000 NULL
P        3.05678050      -2.04289537       3.65395203       0.00000000 NULL
P        2.34557478       5.96390277       0.09301467       0.00000000 NULL
P        0.98025552       4.07143313       5.11838336       0.00000000 NULL
P        3.71089403       0.66557100       0.96677222       0.00000000 NULL
9
Lattice="4.101284726043979 0.0 0.0 0.0 7.121690592667636 2.5862228207240937e-16 0.0 -3.5608452963338175 6.167564971142825" Properties=species:S:1:pos:R:3:initial_magmoms:R:1:castep_labels:S:1 n_minim_iter=9 pbc="T T T"
P        1.30040923       2.30502111       0.11937014       0.00000000 NULL
P        4.03459905       5.86580282       1.93652116       0.00000000 NULL
P        2.66750414       2.51171302       4.11167306       0.00000000 NULL
P        1.69371506       1.42032009       2.57541693       0.00000000 NULL
P        0.32662015       0.62030912       6.10988917       0.00000000 NULL
P        3.06080997      -2.04062815       3.64982322       0.00000000 NULL
P        2.34595553       5.95261402       0.09475484       0.00000000 NULL
P        0.97886062       4.06332384       5.10773693       0.00000000 NULL
P        3.71305044       0.66659909       0.96507259       0.00000000 NULL
9
Lattice="4.113826035937005 0.0 0.0 0.0 7.101765634701907 8.091620533984053e-16 0.0 -3.5508828173509537 6.1503094513751675" Properties=species:S:1:pos:R:3:initial_magmoms:R:1:castep_labels:S:1 n_minim_iter=10 pbc="T T T"
P        1.30883460       2.30176014       0.12734520       0.00000000 NULL
P        4.05138529       5.84060173       1.92970954       0.00000000 NULL
P        2.68010994       2.51028763       4.09325409       0.00000000 NULL
P        1.69892748       1.41427425       2.56449840       0.00000000 NULL
P        0.32765214       0.62282528       6.09285707       0.00000000 NULL
P        3.07020283      -2.03709848       3.64326282       0.00000000 NULL
P        2.34864716       5.93426314       0.09746496       0.00000000 NULL
P        0.97737181       4.05022728       5.09048953       0.00000000 NULL
P        3.71992250       0.66815909       0.96235434       0.00000000 NULL
9
Lattice="4.117596028020363 0.0 0.0 0.0 7.096909124879114 2.4508040050993084e-16 0.0 -3.5484545624395567 6.146103590494901" Properties=species:S:1:pos:R:3:initial_magmoms:R:1:castep_labels:S:1 n_minim_iter=11 pbc="T T T"
P        1.31103607       2.30084216       0.12909044       0.00000000 NULL
P        4.05610009       5.83469279       1.92804193       0.00000000 NULL
P        2.68356808       2.50982979       4.08897061       0.00000000 NULL
P        1.70047544       1.41285189       2.56188589       0.00000000 NULL
P        0.32794343       0.62337071       6.08872566       0.00000000 NULL
P        3.07300745      -2.03622154       3.64159501       0.00000000 NULL
P        2.34980645       5.92986195       0.09798180       0.00000000 NULL
P        0.97727444       4.04712377       5.08641958       0.00000000 NULL
P        3.72233846       0.66837902       0.96170159       0.00000000 NULL
9
Lattice="4.144074176164663 0.0 0.0 0.0 7.063881973081048 1.5434721781637636e-15 0.0 -3.531940986540525 6.11750123802313" Properties=species:S:1:pos:R:3:initial_magmoms:R:1:castep_labels:S:1 n_minim_iter=12 pbc="T T T"
P        1.32621778       2.29443448       0.14063966       0.00000000 NULL
P        4.08893389       5.79486757       1.91671811       0.00000000 NULL
P        2.70757583       2.50652197       4.06014286       0.00000000 NULL
P        1.71132837       1.40326619       2.54422158       0.00000000 NULL
P        0.32997031       0.62694772       6.06065400       0.00000000 NULL
P        3.09268643      -2.03021286       3.63012628       0.00000000 NULL
P        2.35824770       5.90005255       0.10129730       0.00000000 NULL
P        0.97688964       4.02613002       5.05894613       0.00000000 NULL
P        3.73960576       0.66964145       0.95725720       0.00000000 NULL
9
Lattice="4.178530397168208 0.0 0.0 0.0 7.026626751934582 3.722889857036709e-17 0.0 -3.5133133759672908 6.085237270086685" Properties=species:S:1:pos:R:3:initial_magmoms:R:1:castep_labels:S:1 n_minim_iter=13 pbc="T T T"
P        1.34423344       2.28629049       0.15190005       0.00000000 NULL
P        4.12992037       5.75193255       1.90403501       0.00000000 NULL
P        2.73707691       2.50171814       4.02930160       0.00000000 NULL
P        1.72533333       1.39294603       2.52484432       0.00000000 NULL
P        0.33248986       0.63026139       6.02914116       0.00000000 NULL
P        3.11817679      -2.02320637       3.61648846       0.00000000 NULL
P        2.37109082       5.86717686       0.10385782       0.00000000 NULL
P        0.97824735       4.00309516       5.02919469       0.00000000 NULL
P        3.76393428       0.66966915       0.95218415       0.00000000 NULL
9
Lattice="4.179181172390273 0.0 0.0 0.0 7.025853525224986 -6.687995717537049e-16 0.0 -3.512926762612492 6.08456763611329" Properties=species:S:1:pos:R:3:initial_magmoms:R:1:castep_labels:S:1 n_minim_iter=14 pbc="T T T"
P        1.34457498       2.28610848       0.15210319       0.00000000 NULL
P        4.13069576       5.75107440       1.90377582       0.00000000 NULL
P        2.73763537       2.50159845       4.02868802       0.00000000 NULL
P        1.72559553       1.39274065       2.52445362       0.00000000 NULL
P        0.33253514       0.63031582       6.02848900       0.00000000 NULL
P        3.11865592      -2.02305542       3.61619204       0.00000000 NULL
P        2.37133442       5.86650898       0.10389203       0.00000000 NULL
P        0.97827403       4.00262624       5.02859918       0.00000000 NULL
P        3.76439481       0.66964611       0.95207581       0.00000000 NULL
9
Lattice="4.222746536803738 0.0 0.0 0.0 6.974720414194633 1.111884821663258e-15 0.0 -3.487360207097317 6.040285062986473" Properties=species:S:1:pos:R:3:initial_magmoms:R:1:castep_labels:S:1 n_minim_iter=15 pbc="T T T"
P        1.36747935       2.27406310       0.16551096       0.00000000 NULL
P        4.18264371       5.69435252       1.88664033       0.00000000 NULL
P        2.77506153       2.49366605       3.98813317       0.00000000 NULL
P        1.74314271       1.37916632       2.49862646       0.00000000 NULL
P        0.33556053       0.63390341       5.98536430       0.00000000 NULL
P        3.15072489      -2.01306869       3.59657876       0.00000000 NULL
P        2.38760717       5.82235743       0.10613771       0.00000000 NULL
P        0.98002499       3.97162409       4.98923999       0.00000000 NULL
P        3.79518935       0.66810014       0.94490676       0.00000000 NULL
9
Lattice="4.325843874967604 0.0 0.0 0.0 6.8810915009853835 1.2586060962559453e-15 0.0 -3.440545750492692 5.959200045618535" Properties=species:S:1:pos:R:3:initial_magmoms:R:1:castep_labels:S:1 n_minim_iter=16 pbc="T T T"
P        1.42150529       2.25326209       0.19423833       0.00000000 NULL
P        4.30540120       5.58624547       1.85426246       0.00000000 NULL
P        2.86345325       2.48213071       3.91069867       0.00000000 NULL
P        1.78415399       1.35350195       2.44872689       0.00000000 NULL
P        0.34220603       0.64313543       5.90700308       0.00000000 NULL
P        3.22610195      -1.99663635       3.56266953       0.00000000 NULL
P        2.42680788       5.74279292       0.10939534       0.00000000 NULL
P        0.98485993       3.91495624       4.91870629       0.00000000 NULL
P        3.86875584       0.66388912       0.93109782       0.00000000 NULL
9
Lattice="4.3670249859962595 0.0 0.0 0.0 6.743874148985855 1.1433908129564681e-15 0.0 -3.371937074492928 5.840366332946911" Properties=species:S:1:pos:R:3:initial_magmoms:R:1:castep_labels:S:1 n_minim_iter=17 pbc="T T T"
P        1.45489744       2.21734156       0.21609991       0.00000000 NULL
P        4.36624743       5.44805569       1.81222358       0.00000000 NULL
P        2.91057244       2.45041498       3.81204225       0.00000000 NULL
P        1.79927344       1.32113687       2.38611466       0.00000000 NULL
P        0.34359844       0.64493306       5.79144651       0.00000000 NULL
P        3.25494844      -1.96606893       3.50317091       0.00000000 NULL
P        2.43191617       5.63064527       0.10720811       0.00000000 NULL
P        0.97624117       3.83570689       4.82267720       0.00000000 NULL
P        3.88759116       0.64946006       0.91048043       0.00000000 NULL
9
Lattice="4.414075746340886 0.0 0.0 0.0 6.776989015122654 1.8992903522838834e-15 0.0 -3.388494507561328 5.8690446482643" Properties=species:S:1:pos:R:3:initial_magmoms:R:1:castep_labels:S:1 n_minim_iter=18 pbc="T T T"
P        1.47480262       2.23032416       0.22174021       0.00000000 NULL
P        4.41751979       5.46979462       1.82064669       0.00000000 NULL
P        2.94616121       2.46536576       3.82665716       0.00000000 NULL
P        1.81788682       1.32657376       2.39546546       0.00000000 NULL
P        0.34652824       0.65067402       5.82015791       0.00000000 NULL
P        3.28924540      -1.97724677       3.52246534       0.00000000 NULL
P        2.45466007       5.65871175       0.10755815       0.00000000 NULL
P        0.98330149       3.85448538       4.84680847       0.00000000 NULL
P        3.92601866       0.65228740       0.91467744       0.00000000 NULL
9
Lattice="4.423125016765495 0.0 0.0 0.0 6.7583693466347965 -3.3426751956717017e-16 0.0 -3.379184673317398 5.8529195423437725" Properties=species:S:1:pos:R:3:initial_magmoms:R:1:castep_labels:S:1 n_minim_iter=19 pbc="T T T"
P        1.48139781       2.22599166       0.22493623       0.00000000 NULL
P        4.43014782       5.45057335       1.81529663       0.00000000 NULL
P        2.95577281       2.46099001       3.81268609       0.00000000 NULL
P        1.82116249       1.32221623       2.38694674       0.00000000 NULL
P        0.34678749       0.65092038       5.80451843       0.00000000 NULL
P        3.29553750      -1.97313560       3.51437333       0.00000000 NULL
P        2.45657182       5.64392215       0.10665744       0.00000000 NULL
P        0.98219682       3.84404055       4.83445066       0.00000000 NULL
P        3.93094683       0.64959232       0.91181086       0.00000000 NULL
9
Lattice="4.436686799589243 0.0 0.0 0.0 6.743441697226975 1.06218386672817e-15 0.0 -3.371720848613488 5.8399918187378095" Properties=species:S:1:pos:R:3:initial_magmoms:R:1:castep_labels:S:1 n_minim_iter=20 pbc="T T T"
P        1.48985604       2.22306558       0.22844139       0.00000000 NULL
P        4.44764724       5.43407320       1.81100999       0.00000000 NULL
P        2.96875164       2.45802477       3.80053986       0.00000000 NULL
P        1.82621068       1.31853451       2.37965674       0.00000000 NULL
P        0.34731508       0.65161073       5.79204725       0.00000000 NULL
P        3.30510628      -1.97014424       3.50827906       0.00000000 NULL
P        2.46072353       5.63227800       0.10571565       0.00000000 NULL
P        0.98182793       3.83575059       4.82483742       0.00000000 NULL
P        3.93961913       0.64713495       0.90943816       0.00000000 NULL
9
Lattice="4.4588310662556205 0.0 0.0 0.0 6.7198854150168605 9.620708349136216e-16 0.0 -3.359942707508431 5.819591479925135" Properties=species:S:1:pos:R:3:initial_magmoms:R:1:castep_labels:S:1 n_minim_iter=21 pbc="T T T"
P        1.50362814       2.21854663       0.23381214       0.00000000 NULL
P        4.47618218       5.40812518       1.80441109       0.00000000 NULL
P        2.98990516       2.45315732       3.78136767       0.00000000 NULL
P        1.83443067       1.31276012       2.36827319       0.00000000 NULL
P        0.34815365       0.65257824       5.77233792       0.00000000 NULL
P        3.32070769      -1.96533736       3.49857127       0.00000000 NULL
P        2.46756440       5.61398082       0.10406697       0.00000000 NULL
P        0.98128738       3.82277070       4.80981594       0.00000000 NULL
P        3.95384142       0.64307760       0.90570798       0.00000000 NULL
9
Lattice="4.483541180563586 0.0 0.0 0.0 6.694703255760735 8.186922320295809e-16 0.0 -3.3473516278803683 5.797783090287185" Properties=species:S:1:pos:R:3:initial_magmoms:R:1:castep_labels:S:1 n_minim_iter=22 pbc="T T T"
P        1.51899575       2.21389803       0.23926555       0.00000000 NULL
P        4.50802321       5.38054453       1.79765858       0.00000000 NULL
P        3.01350948       2.44761332       3.76085837       0.00000000 NULL
P        1.84355513       1.30664406       2.35632599       0.00000000 NULL
P        0.34904140       0.65339176       5.75120646       0.00000000 NULL
P        3.33806885      -1.96003482       3.48803315       0.00000000 NULL
P        2.47524614       5.59455531       0.10201726       0.00000000 NULL
P        0.98073242       3.80907639       4.79401781       0.00000000 NULL
P        3.96975987       0.63842418       0.90174744       0.00000000 NULL
9
Lattice="4.501114706284997 0.0 0.0 0.0 6.677599141694645 4.270668906702809e-16 0.0 -3.338799570847323 5.782970492996724" Properties=species:S:1:pos:R:3:initial_magmoms:R:1:castep_labels:S:1 n_minim_iter=23 pbc="T T T"
P        1.52995775       2.21090387       0.24276965       0.00000000 NULL
P        4.53070089       5.36190285       1.79331352       0.00000000 NULL
P        3.03032932       2.44359298       3.74688675       0.00000000 NULL
P        1.85000251       1.30252442       2.34837882       0.00000000 NULL
P        0.34963094       0.65378197       5.73679974       0.00000000 NULL
P        3.35037408      -1.95630540       3.48076184       0.00000000 NULL
P        2.48071838       5.58147060       0.10039581       0.00000000 NULL
P        0.98034681       3.79991885       4.78349685       0.00000000 NULL
P        3.98108995       0.63501026       0.89907726       0.00000000 NULL
9
Lattice="4.501151496426751 0.0 0.0 0.0 6.677564273248265 2.672015812734225e-16 0.0 -3.338782136624133 5.782940296036369" Properties=species:S:1:pos:R:3:initial_magmoms:R:1:castep_labels:S:1 n_minim_iter=24 pbc="T T T"
P        1.52998078       2.21089801       0.24277649       0.00000000 NULL
P        4.53074844       5.36186499       1.79330502       0.00000000 NULL
P        3.03036461       2.44358440       3.74685820       0.00000000 NULL
P        1.85001594       1.30251607       2.34836288       0.00000000 NULL
P        0.34963211       0.65378252       5.73677029       0.00000000 NULL
P        3.35039977      -1.95629760       3.48074684       0.00000000 NULL
P        2.48072982       5.58144409       0.10039216       0.00000000 NULL
P        0.98034599       3.79990039       4.78347571       0.00000000 NULL
P        3.98111365       0.63500292       0.89907184       0.00000000 NULL
9
Lattice="4.535192605971607 0.0 0.0 0.0 6.645502368777624 2.4010431770664816e-17 0.0 -3.3227511843888125 5.755173872271084" Properties=species:S:1:pos:R:3:initial_magmoms:R:1:castep_labels:S:1 n_minim_iter=25 pbc="T T T"
P        1.55132278       2.20549882       0.24904904       0.00000000 NULL
P        4.57478452       5.32707049       1.78549291       0.00000000 NULL
P        3.06305365       2.43568523       3.72063134       0.00000000 NULL
P        1.86243685       1.29484221       2.33371151       0.00000000 NULL
P        0.35070598       0.65427695       5.70968379       0.00000000 NULL
P        3.37416772      -1.94911818       3.46695187       0.00000000 NULL
P        2.49129015       5.55705972       0.09704657       0.00000000 NULL
P        0.97955928       3.78292805       4.76403103       0.00000000 NULL
P        4.00302101       0.62826678       0.89409570       0.00000000 NULL
9
Lattice="4.538479887752854 0.0 0.0 0.0 6.642661498582869 -1.827204028264836e-16 0.0 -3.321330749291435 5.752713606513572" Properties=species:S:1:pos:R:3:initial_magmoms:R:1:castep_labels:S:1 n_minim_iter=26 pbc="T T T"
P        1.55339042       2.20507471       0.24956968       0.00000000 NULL
P        4.57904368       5.32399079       1.78486530       0.00000000 NULL
P        3.06621705       2.43492774       3.71827805       0.00000000 NULL
P        1.86362572       1.29416670       2.33245141       0.00000000 NULL
P        0.35079910       0.65428555       5.70726856       0.00000000 NULL
P        3.37645235      -1.94845126       3.46570666       0.00000000 NULL
P        2.49231384       5.55493089       0.09668665       0.00000000 NULL
P        0.97948721       3.78146329       4.76236737       0.00000000 NULL
P        4.00514047       0.62759906       0.89365901       0.00000000 NULL
9
Lattice="4.573766886357011 -2.936273351590121e-57 -3.718241037115013e-41 5.933222662748917e-57 6.612308334019334 1.6987708954050823e-15 9.984630238374652e-41 -3.306154167009669 5.7264269949163005" Properties=species:S:1:pos:R:3:initial_magmoms:R:1:castep_labels:S:1 n_minim_iter=27 pbc="T T T"
P        1.57566197       2.20054915       0.25503519       0.00000000 NULL
P        4.62483989       5.29116713       1.77821330       0.00000000 NULL
P        3.10025093       2.42674720       3.69317793       0.00000000 NULL
P        1.87636463       1.28696681       2.31905301       0.00000000 NULL
P        0.35177567       0.65431227       5.68144587       0.00000000 NULL
P        3.40095359      -1.94127810       3.45235454       0.00000000 NULL
P        2.50324884       5.53219673       0.09280404       0.00000000 NULL
P        0.97865988       3.76583963       4.74462032       0.00000000 NULL
P        4.02783780       0.62042712       0.88900206       0.00000000 NULL
9
Lattice="4.609613110668487 3.216142058519629e-43 -9.37794573951019e-41 4.649586099451519e-43 6.582843278833733 8.411770283723972e-16 -2.9136780103346967e-41 -3.291421639416868 5.700909508601661" Properties=species:S:1:pos:R:3:initial_magmoms:R:1:castep_labels:S:1 n_minim_iter=28 pbc="T T T"
P        1.59857875       2.19658253       0.25970875       0.00000000 NULL
P        4.67165415       5.25963797       1.77244133       0.00000000 NULL
P        3.13511645       2.41804540       3.66875886       0.00000000 NULL
P        1.88914700       1.28007856       2.30659061       0.00000000 NULL
P        0.35260929       0.65381662       5.65619419       0.00000000 NULL
P        3.42568470      -1.93389421       3.43903365       0.00000000 NULL
P        2.51422329       5.51040127       0.08842648       0.00000000 NULL
P        0.97768559       3.75106339       4.72793368       0.00000000 NULL
P        4.05076099       0.61280124       0.88454878       0.00000000 NULL
9
Lattice="4.646097079412398 2.2589721041801693e-43 -5.317485013445905e-41 3.339113900261058e-43 6.554705648562046 -1.469178733399283e-16 -5.687062771319114e-42 -3.2773528242810235 5.676541605984085" Properties=species:S:1:pos:R:3:initial_magmoms:R:1:castep_labels:S:1 n_minim_iter=29 pbc="T T T"
P        1.62214062       2.19329872       0.26360675       0.00000000 NULL
P        4.71953867       5.22976647       1.76764847       0.00000000 NULL
P        3.17083964       2.40899426       3.64528582       0.00000000 NULL
P        1.90199483       1.27359459       2.29522288       0.00000000 NULL
P        0.35329581       0.65283453       5.63189487       0.00000000 NULL
P        3.45069386      -1.92642815       3.42596489       0.00000000 NULL
P        2.52531755       5.48989309       0.08358829       0.00000000 NULL
P        0.97661852       3.73736985       4.71259216       0.00000000 NULL
P        4.07401658       0.60479652       0.88036058       0.00000000 NULL
9
Lattice="4.681353270979775 2.0326418873362483e-43 -9.594772936538752e-41 3.0592491367948778e-43 6.52569924730459 -2.9589539613895597e-16 1.8208804630190365e-40 -3.2628496236522953 5.6514213256227634" Properties=species:S:1:pos:R:3:initial_magmoms:R:1:castep_labels:S:1 n_minim_iter=30 pbc="T T T"
P        1.64560558       2.18990266       0.26665868       0.00000000 NULL
P        4.76650776       5.19981505       1.76318144       0.00000000 NULL
P        3.20605667       2.39883213       3.62158065       0.00000000 NULL
P        1.91416364       1.26709746       2.28414710       0.00000000 NULL
P        0.35371255       0.65117181       5.60668580       0.00000000 NULL
P        3.47461473      -1.91826829       3.41200919       0.00000000 NULL
P        2.53558912       5.46881652       0.07829722       0.00000000 NULL
P        0.97513803       3.72348393       4.69698486       0.00000000 NULL
P        4.09604022       0.59624940       0.87613868       0.00000000 NULL
9
Lattice="4.720196118380568 8.213244566307534e-43 -1.500526418947767e-40 1.1714159828769036e-42 6.493666905120542 1.2255950237360793e-15 7.483968339456793e-41 -3.246833452560273 5.623680503548661" Properties=species:S:1:pos:R:3:initial_magmoms:R:1:castep_labels:S:1 n_minim_iter=31 pbc="T T T"
P        1.67237751       2.18670900       0.26937716       0.00000000 NULL
P        4.81917492       5.16702526       1.75905641       0.00000000 NULL
P        3.24577622       2.38676706       3.59524637       0.00000000 NULL
P        1.92724744       1.26005025       2.27252350       0.00000000 NULL
P        0.35384873       0.64874557       5.57865372       0.00000000 NULL
P        3.50064615      -1.90879485       3.39618322       0.00000000 NULL
P        2.54630874       5.44585289       0.07177295       0.00000000 NULL
P        0.97291003       3.70858359       4.68035991       0.00000000 NULL
P        4.11970745       0.58606485       0.87154708       0.00000000 NULL
9
Lattice="4.795131934975862 1.4410740390030436e-42 -6.911376369484433e-41 2.0572035980059468e-42 6.409823186206826 4.879231374835731e-16 1.1562952556023931e-40 -3.2049115931034144 5.551069713021621" Properties=species:S:1:pos:R:3:initial_magmoms:R:1:castep_labels:S:1 n_minim_iter=32 pbc="T T T"
P        1.73152159       2.17766121       0.27353579       0.00000000 NULL
P        4.92827622       5.08410396       1.74914148       0.00000000 NULL
P        3.32989890       2.35297057       3.52839189       0.00000000 NULL
P        1.95061061       1.24230703       2.24384688       0.00000000 NULL
P        0.35223330       0.64053000       5.50501516       0.00000000 NULL
P        3.54898792      -1.88283607       3.35327683       0.00000000 NULL
P        2.56137171       5.38551919       0.05479241       0.00000000 NULL
P        0.96299440       3.66961229       4.63659968       0.00000000 NULL
P        4.15974902       0.55960425       0.85967707       0.00000000 NULL
9
Lattice="4.867474632445204 9.938620531341364e-43 -1.4704875318187272e-40 1.4792615295856976e-42 6.447005432745939 1.2077109082545966e-15 5.163271219501428e-41 -3.2235027163729715 5.583270483094269" Properties=species:S:1:pos:R:3:initial_magmoms:R:1:castep_labels:S:1 n_minim_iter=33 pbc="T T T"
P        1.78987745       2.21186072       0.27790659       0.00000000 NULL
P        5.03486054       5.10040122       1.77657372       0.00000000 NULL
P        3.41236900       2.35824716       3.52878961       0.00000000 NULL
P        1.97202427       1.24904170       2.26183717       0.00000000 NULL
P        0.34953273       0.64017374       5.53405318       0.00000000 NULL
P        3.59451581      -1.88921448       3.37065005       0.00000000 NULL
P        2.57579601       5.42692534       0.03676563       0.00000000 NULL
P        0.95330447       3.70170311       4.68147184       0.00000000 NULL
P        4.19828755       0.54188066       0.86503245       0.00000000 NULL
9
Lattice="4.811287663674986 1.4096928061270351e-42 -2.257803392363795e-40 2.0299351627990333e-42 6.3638530094497945 -3.557001012644216e-16 -2.0659007678193546e-41 -3.1819265047248977 5.511258372133572" Properties=species:S:1:pos:R:3:initial_magmoms:R:1:castep_labels:S:1 n_minim_iter=34 pbc="T T T"
P        1.77298139       2.18592678       0.27462030       0.00000000 NULL
P        4.98050650       5.03306178       1.75575742       0.00000000 NULL
P        3.37674395       2.32679190       3.48088010       0.00000000 NULL
P        1.94861705       1.23363793       2.23316808       0.00000000 NULL
P        0.34485450       0.63112756       5.46303557       0.00000000 NULL
P        3.55237961      -1.86476455       3.32631254       0.00000000 NULL
P        2.54294101       5.35898998       0.03242430       0.00000000 NULL
P        0.93917846       3.65627807       4.62480876       0.00000000 NULL
P        4.14670357       0.53051242       0.85402476       0.00000000 NULL
9
Lattice="4.822154369998212 1.4625765091513483e-42 -2.063442044672783e-40 2.098551875687805e-42 6.38404753519631 -7.637921812338382e-16 -1.0803312555317847e-40 -3.192023767598155 5.528747344447434" Properties=species:S:1:pos:R:3:initial_magmoms:R:1:castep_labels:S:1 n_minim_iter=35 pbc="T T T"
P        1.78054040       2.19529985       0.27555231       0.00000000 NULL
P        4.99530998       5.04776262       1.76340874       0.00000000 NULL
P        3.38792519       2.33300978       3.48978574       0.00000000 NULL
P        1.95194559       1.23772044       2.24102264       0.00000000 NULL
P        0.34456080       0.63238133       5.48013282       0.00000000 NULL
P        3.55933038      -1.87010082       3.33633868       0.00000000 NULL
P        2.54620247       5.37698994       0.03007592       0.00000000 NULL
P        0.93881768       3.66950637       4.64157137       0.00000000 NULL
P        4.15358726       0.52957595       0.85709950       0.00000000 NULL
9
Lattice="4.818601875509202 1.4505190795501823e-42 -2.1600532957026927e-40 2.0813810868304826e-42 6.3829329930405905 1.0918591062820707e-15 3.334425047392759e-41 -3.191466496520297 5.527782122626991" Properties=species:S:1:pos:R:3:initial_magmoms:R:1:castep_labels:S:1 n_minim_iter=36 pbc="T T T"
P        1.78249473       2.19715765       0.27561354       0.00000000 NULL
P        4.99489598       5.04566616       1.76498702       0.00000000 NULL
P        3.38869536       2.33157664       3.48718101       0.00000000 NULL
P        1.94959300       1.23780695       2.24126963       0.00000000 NULL
P        0.34339238       0.63156691       5.47911902       0.00000000 NULL
P        3.55579363      -1.86937290       3.33517505       0.00000000 NULL
P        2.54197520       5.37713449       0.02751358       0.00000000 NULL
P        0.93577457       3.67053860       4.64297773       0.00000000 NULL
P        4.14817582       0.52672734       0.85729026       0.00000000 NULL
9
Lattice="4.781267429215602 1.461131985343741e-42 -2.2806311483919233e-40 2.0791450955810842e-42 6.383490454006285 -1.2629924875308375e-15 2.355341396627739e-40 -3.191745227003142 5.5282648979849025" Properties=species:S:1:pos:R:3:initial_magmoms:R:1:castep_labels:S:1 n_minim_iter=37 pbc="T T T"
P        1.80700891       2.22366295       0.27699684       0.00000000 NULL
P        4.99452053       5.03177300       1.78724963       0.00000000 NULL
P        3.40076472       2.31980069       3.46401787       0.00000000 NULL
P        1.92354872       1.24181435       2.24894243       0.00000000 NULL
P        0.32979291       0.62319709       5.47923590       0.00000000 NULL
P        3.51730453      -1.86501049       3.32835090       0.00000000 NULL
P        2.49489394       5.39014437      -0.00317632       0.00000000 NULL
P        0.90113813       3.69116936       4.66958956       0.00000000 NULL
P        4.08864975       0.49392290       0.86185110       0.00000000 NULL
