16
Lattice="4.88788 0.0 0.0 0.0 6.283659999999999 1.7299646168492325e-15 0.0 -2.9926625805164724 11.571217718186638" Properties=species:S:1:pos:R:3:initial_magmoms:R:1:castep_labels:S:1 n_minim_iter=1 pbc="T T T"
P        4.23118599      -1.57778512      10.55465963       0.00000000 NULL
P        4.23118599       1.72695254       1.01655809       0.00000000 NULL
P        0.65669401       4.86878254       1.01655809       0.00000000 NULL
P        0.65669401       1.56404488      10.55465963       0.00000000 NULL
P        4.01924116       3.41702601       2.12300256       0.00000000 NULL
P        4.01924116       3.01580141       9.44821516       0.00000000 NULL
P        0.86863884      -0.12602859       9.44821516       0.00000000 NULL
P        0.86863884       0.27519601       2.12300256       0.00000000 NULL
P        2.66726626       1.83643104      10.36408630       0.00000000 NULL
P        2.66726626       4.59639638       1.20713142       0.00000000 NULL
P        2.22061374       1.45456638       1.20713142       0.00000000 NULL
P        2.22061374      -1.30539896      10.36408630       0.00000000 NULL
P        3.40276560       4.44281183       3.72747223       0.00000000 NULL
P        3.40276560       1.99001559       7.84374549       0.00000000 NULL
P        1.48511440      -1.15181441       7.84374549       0.00000000 NULL
P        1.48511440       1.30098183       3.72747223       0.00000000 NULL
16
Lattice="4.903793697653075 0.0 0.0 0.0 6.304421465373191 0.010511542655921333 0.0 -2.983193690078954 11.592437151732476" Properties=species:S:1:pos:R:3:initial_magmoms:R:1:castep_labels:S:1 n_minim_iter=2 pbc="T T T"
P        4.24517717      -1.56511235      10.57583944       0.00000000 NULL
P        4.24517717       1.73412939       1.02185349       0.00000000 NULL
P        0.65861653       4.88634012       1.02710926       0.00000000 NULL
P        0.65861653       1.58709839      10.58109521       0.00000000 NULL
P        4.03260088       3.43191376       2.13362535       0.00000000 NULL
P        4.03260088       3.04152475       9.47457912       0.00000000 NULL
P        0.87119282      -0.11068598       9.46932335       0.00000000 NULL
P        0.87119282       0.27970302       2.12836957       0.00000000 NULL
P        2.67606921       1.85973165      10.39077330       0.00000000 NULL
P        2.67606921       4.61370685       1.21743117       0.00000000 NULL
P        2.22772448       1.46149612       1.21217539       0.00000000 NULL
P        2.22772448      -1.29247908      10.38551753       0.00000000 NULL
P        3.41374171       4.46383979       3.74348085       0.00000000 NULL
P        3.41374171       2.00959872       7.86472362       0.00000000 NULL
P        1.49005199      -1.14261201       7.85946785       0.00000000 NULL
P        1.49005199       1.31162905       3.73822508       0.00000000 NULL
16
Lattice="5.159371330070352 0.0 0.0 0.0 6.637975894551998 0.1830024016564289 0.0 -2.8244146623907973 11.914762156417643" Properties=species:S:1:pos:R:3:initial_magmoms:R:1:castep_labels:S:1 n_minim_iter=3 pbc="T T T"
P        4.46995097      -1.35533763      10.89982104       0.00000000 NULL
P        4.46995097       1.84991092       1.10644232       0.00000000 NULL
P        0.68942036       5.16889886       1.19794352       0.00000000 NULL
P        0.68942036       1.96365032      10.99132224       0.00000000 NULL
P        4.24735313       3.67243632       2.30328356       0.00000000 NULL
P        4.24735313       3.46011286       9.88598220       0.00000000 NULL
P        0.91201820       0.14112491       9.79448100       0.00000000 NULL
P        0.91201820       0.35344837       2.21178236       0.00000000 NULL
P        2.81749539       2.24000387      10.80554109       0.00000000 NULL
P        2.81749539       4.89254531       1.38372467       0.00000000 NULL
P        2.34187594       1.57355736       1.29222347       0.00000000 NULL
P        2.34187594      -1.07898408      10.71403989       0.00000000 NULL
P        3.58994818       4.80390314       3.99772955       0.00000000 NULL
P        3.58994818       2.32864604       8.19153621       0.00000000 NULL
P        1.56942315      -0.99034191       8.10003501       0.00000000 NULL
P        1.56942315       1.48491520       3.90622835       0.00000000 NULL
16
Lattice="5.255965607964304 0.0 0.0 0.0 6.780540860744651 0.285324235246804 0.0 -2.7038894630354946 11.777578437170646" Properties=species:S:1:pos:R:3:initial_magmoms:R:1:castep_labels:S:1 n_minim_iter=4 pbc="T T T"
P        4.55513893      -1.21631006      10.79189397       0.00000000 NULL
P        4.55513893       1.90269103       1.12834659       0.00000000 NULL
P        0.70082668       5.29296146       1.27100871       0.00000000 NULL
P        0.70082668       2.17396037      10.93455608       0.00000000 NULL
P        4.32985812       3.78619029       2.34483180       0.00000000 NULL
P        4.32985812       3.68073154       9.86073300       0.00000000 NULL
P        0.92610749       0.29046111       9.71807088       0.00000000 NULL
P        0.92610749       0.39591986       2.20216968       0.00000000 NULL
P        2.87119658       2.44902552      10.75851862       0.00000000 NULL
P        2.87119658       5.01789631       1.44704617       0.00000000 NULL
P        2.38476903       1.62762588       1.30438405       0.00000000 NULL
P        2.38476903      -0.94124491      10.61585650       0.00000000 NULL
P        3.65602358       4.96598195       4.04040297       0.00000000 NULL
P        3.65602358       2.50093988       8.16516183       0.00000000 NULL
P        1.59994203      -0.88933055       8.02249971       0.00000000 NULL
P        1.59994203       1.57571152       3.89774085       0.00000000 NULL
16
Lattice="5.307526334034075 0.0 0.0 0.0 6.887905291864898 0.39080815153361137 0.0 -2.560776715746556 11.463672192186351" Properties=species:S:1:pos:R:3:initial_magmoms:R:1:castep_labels:S:1 n_minim_iter=5 pbc="T T T"
P        4.60101880      -1.06282141      10.52280563       0.00000000 NULL
P        4.60101880       1.94599734       1.13627064       0.00000000 NULL
P        0.70650754       5.38994998       1.33167471       0.00000000 NULL
P        0.70650754       2.38113124      10.71820971       0.00000000 NULL
P        4.37591109       3.88243373       2.35640902       0.00000000 NULL
P        4.37591109       3.88864749       9.69347540       0.00000000 NULL
P        0.93161524       0.44469485       9.49807132       0.00000000 NULL
P        0.93161524       0.43848108       2.16100495       0.00000000 NULL
P        2.90007339       2.65253986      10.55556345       0.00000000 NULL
P        2.90007339       5.11854136       1.49432098       0.00000000 NULL
P        2.40745294       1.67458872       1.29891690       0.00000000 NULL
P        2.40745294      -0.79141279      10.36015937       0.00000000 NULL
P        3.69032294       5.10463434       4.02758017       0.00000000 NULL
P        3.69032294       2.66644688       8.02230425       0.00000000 NULL
P        1.61720339      -0.77750577       7.82690018       0.00000000 NULL
P        1.61720339       1.66068170       3.83217609       0.00000000 NULL
16
Lattice="5.433154894872484 0.0 0.0 0.0 7.1523122755611634 0.714697099596799 0.0 -2.090269296755305 10.487764848310457" Properties=species:S:1:pos:R:3:initial_magmoms:R:1:castep_labels:S:1 n_minim_iter=6 pbc="T T T"
P        4.71316678      -0.57652266       9.68444224       0.00000000 NULL
P        4.71316678       2.06240950       1.16067116       0.00000000 NULL
P        0.71998811       5.63856564       1.51801971       0.00000000 NULL
P        0.71998811       2.99963348      10.04179079       0.00000000 NULL
P        4.49237349       4.14265902       2.38924958       0.00000000 NULL
P        4.49237349       4.49554009       9.17056091       0.00000000 NULL
P        0.94078140       0.91938395       8.81321237       0.00000000 NULL
P        0.94078140       0.56650289       2.03190103       0.00000000 NULL
P        2.96974416       3.25674297       9.91823686       0.00000000 NULL
P        2.96974416       5.38145615       1.64157364       0.00000000 NULL
P        2.46341073       1.80530001       1.28422509       0.00000000 NULL
P        2.46341073      -0.31941317       9.56088831       0.00000000 NULL
P        3.77152979       5.48300952       3.98388993       0.00000000 NULL
P        3.77152979       3.15518960       7.57592057       0.00000000 NULL
P        1.66162510      -0.42096654       7.21857202       0.00000000 NULL
P        1.66162510       1.90685338       3.62654138       0.00000000 NULL
16
Lattice="5.562659550325094 0.0 0.0 0.0 7.292879027743828 0.9069195364695655 0.0 -1.803242498988816 10.656055856099885" Properties=species:S:1:pos:R:3:initial_magmoms:R:1:castep_labels:S:1 n_minim_iter=7 pbc="T T T"
P        4.82725816      -0.28890670       9.85985677       0.00000000 NULL
P        4.82725816       2.13210372       1.24965886       0.00000000 NULL
P        0.73540139       5.77854323       1.70311863       0.00000000 NULL
P        0.73540139       3.35753281      10.31331654       0.00000000 NULL
P        4.61157530       4.28818779       2.54978439       0.00000000 NULL
P        4.61157530       4.84788825       9.46665077       0.00000000 NULL
P        0.95108425       1.20144874       9.01319100       0.00000000 NULL
P        0.95108425       0.64174828       2.09632462       0.00000000 NULL
P        3.03735880       3.60420720      10.20151443       0.00000000 NULL
P        3.03735880       5.53186884       1.81492074       0.00000000 NULL
P        2.52530075       1.88542933       1.36146097       0.00000000 NULL
P        2.52530075      -0.04223231       9.74805466       0.00000000 NULL
P        3.85590254       5.69350951       4.19629659       0.00000000 NULL
P        3.85590254       3.44256653       7.82013858       0.00000000 NULL
P        1.70675701      -0.20387298       7.36667881       0.00000000 NULL
P        1.70675701       2.04707000       3.74283682       0.00000000 NULL
16
Lattice="5.497408496463067 0.0 0.0 0.0 7.207100202733196 0.88388619101653 0.0 -1.8048047692588973 10.358609766352242" Properties=species:S:1:pos:R:3:initial_magmoms:R:1:castep_labels:S:1 n_minim_iter=8 pbc="T T T"
P        4.77095660      -0.30501463       9.58377880       0.00000000 NULL
P        4.77095660       2.10375996       1.21677407       0.00000000 NULL
P        0.72645190       5.70731006       1.65871716       0.00000000 NULL
P        0.72645190       3.29853547      10.02572189       0.00000000 NULL
P        4.55992290       4.23651573       2.48350055       0.00000000 NULL
P        4.55992290       4.76932980       9.20093851       0.00000000 NULL
P        0.93748560       1.16577970       8.75899541       0.00000000 NULL
P        0.93748560       0.63296563       2.04155745       0.00000000 NULL
P        3.00107229       3.53872331       9.91729480       0.00000000 NULL
P        3.00107229       5.46712222       1.76714425       0.00000000 NULL
P        2.49633620       1.86357212       1.32520116       0.00000000 NULL
P        2.49633620      -0.06482679       9.47535171       0.00000000 NULL
P        3.80969055       5.61641529       4.07696493       0.00000000 NULL
P        3.80969055       3.38943025       7.60747412       0.00000000 NULL
P        1.68771794      -0.21411985       7.16553103       0.00000000 NULL
P        1.68771794       2.01286519       3.63502184       0.00000000 NULL
16
Lattice="5.51308515143011 0.0 0.0 0.0 7.2173520552292185 0.9041484548737794 0.0 -1.7723748269625663 10.347699844221442" Properties=species:S:1:pos:R:3:initial_magmoms:R:1:castep_labels:S:1 n_minim_iter=9 pbc="T T T"
P        4.78492385      -0.27339526       9.57505551       0.00000000 NULL
P        4.78492385       2.10969646       1.22471857       0.00000000 NULL
P        0.72816130       5.71837249       1.67679279       0.00000000 NULL
P        0.72816130       3.33528077      10.02712973       0.00000000 NULL
P        4.57605603       4.25052203       2.49720049       0.00000000 NULL
P        4.57605603       4.80313123       9.20672204       0.00000000 NULL
P        0.93702912       1.19445520       8.75464781       0.00000000 NULL
P        0.93702912       0.64184600       2.04512626       0.00000000 NULL
P        3.00848690       3.57186722       9.92015365       0.00000000 NULL
P        3.00848690       5.48178604       1.78376888       0.00000000 NULL
P        2.50459825       1.87311001       1.33169466       0.00000000 NULL
P        2.50459825      -0.03680881       9.46807942       0.00000000 NULL
P        3.81921388       5.63404759       4.08826087       0.00000000 NULL
P        3.81921388       3.41960566       7.61566166       0.00000000 NULL
P        1.69387127      -0.18907037       7.16358743       0.00000000 NULL
P        1.69387127       2.02537157       3.63618664       0.00000000 NULL
16
Lattice="5.522931306831607 0.0 0.0 0.0 7.218914766741352 0.9301189513594522 0.0 -1.7252950039265305 10.302595157949215" Properties=species:S:1:pos:R:3:initial_magmoms:R:1:castep_labels:S:1 n_minim_iter=10 pbc="T T T"
P        4.79397561      -0.22979265       9.53510260       0.00000000 NULL
P        4.79397561       2.11395503       1.23255204       0.00000000 NULL
P        0.72895570       5.72341242       1.69761151       0.00000000 NULL
P        0.72895570       3.37966473      10.00016208       0.00000000 NULL
P        4.58907381       4.26290794       2.51001976       0.00000000 NULL
P        4.58907381       4.84016920       9.18775383       0.00000000 NULL
P        0.93385750       1.23071182       8.72269435       0.00000000 NULL
P        0.93385750       0.65345056       2.04496029       0.00000000 NULL
P        3.01210453       3.61004006       9.89528878       0.00000000 NULL
P        3.01210453       5.49303709       1.80248480       0.00000000 NULL
P        2.51082678       1.88357970       1.33742533       0.00000000 NULL
P        2.51082678       0.00058268       9.43022931       0.00000000 NULL
P        3.82391777       5.64776180       4.09175950       0.00000000 NULL
P        3.82391777       3.45531535       7.60601409       0.00000000 NULL
P        1.69901354      -0.15414203       7.14095461       0.00000000 NULL
P        1.69901354       2.03830441       3.62670002       0.00000000 NULL
16
Lattice="5.5679217791595805 0.0 0.0 0.0 7.229408598506559 1.0944268387901144 0.0 -1.427723550247382 10.115011584128306" Properties=species:S:1:pos:R:3:initial_magmoms:R:1:castep_labels:S:1 n_minim_iter=11 pbc="T T T"
P        4.83589124       0.04554726       9.37229475       0.00000000 NULL
P        4.83589124       2.14143349       1.28993026       0.00000000 NULL
P        0.73203054       5.75613779       1.83714367       0.00000000 NULL
P        0.73203054       3.66025156       9.91950817       0.00000000 NULL
P        4.65800982       4.34326338       2.61100734       0.00000000 NULL
P        4.65800982       5.07312597       9.14564450       0.00000000 NULL
P        0.90991196       1.45842167       8.59843109       0.00000000 NULL
P        0.90991196       0.72855908       2.06379392       0.00000000 NULL
P        3.02511399       3.84988976       9.82338451       0.00000000 NULL
P        3.02511399       5.56649959       1.93326733       0.00000000 NULL
P        2.54280779       1.95179529       1.38605391       0.00000000 NULL
P        2.54280779       0.23518546       9.27617109       0.00000000 NULL
P        3.84097260       5.73356126       4.14442202       0.00000000 NULL
P        3.84097260       3.68282809       7.61222983       0.00000000 NULL
P        1.72694918       0.06812379       7.06501641       0.00000000 NULL
P        1.72694918       2.11885696       3.59720860       0.00000000 NULL
16
Lattice="5.451245244605785 0.0 0.0 0.0 7.196783407843192 1.1060083832669885 0.0 -1.3908582902022406 10.082481355333329" Properties=species:S:1:pos:R:3:initial_magmoms:R:1:castep_labels:S:1 n_minim_iter=12 pbc="T T T"
P        4.73372906       0.08330286       9.33369913       0.00000000 NULL
P        4.73372906       2.12423056       1.30178642       0.00000000 NULL
P        0.71751618       5.72262226       1.85479061       0.00000000 NULL
P        0.71751618       3.68169456       9.88670332       0.00000000 NULL
P        4.59612685       4.35622627       2.66398721       0.00000000 NULL
P        4.59612685       5.04809055       9.07750672       0.00000000 NULL
P        0.85511839       1.44969885       8.52450253       0.00000000 NULL
P        0.85511839       0.75783457       2.11098302       0.00000000 NULL
P        2.94922432       3.81453586       9.77217882       0.00000000 NULL
P        2.94922432       5.58978096       1.96931512       0.00000000 NULL
P        2.50202093       1.99138926       1.41631092       0.00000000 NULL
P        2.50202093       0.21614415       9.21917462       0.00000000 NULL
P        3.74039390       5.69066472       4.10529958       0.00000000 NULL
P        3.74039390       3.71365210       7.63619436       0.00000000 NULL
P        1.71085135       0.11526040       7.08319016       0.00000000 NULL
P        1.71085135       2.09227302       3.55229538       0.00000000 NULL
16
Lattice="5.606401367653235 0.0 0.0 0.0 7.413969384895742 1.2614557873527588 0.0 -1.2080426366077888 10.37459867469211" Properties=species:S:1:pos:R:3:initial_magmoms:R:1:castep_labels:S:1 n_minim_iter=13 pbc="T T T"
P        4.86908848       0.28920561       9.62674143       0.00000000 NULL
P        4.86908848       2.20973645       1.37858514       0.00000000 NULL
P        0.73731289       5.91672114       2.00931304       0.00000000 NULL
P        0.73731289       3.99619030      10.25746932       0.00000000 NULL
P        4.73176835       4.52897625       2.82384298       0.00000000 NULL
P        4.73176835       5.38393519       9.44293938       0.00000000 NULL
P        0.87463301       1.67695049       8.81221149       0.00000000 NULL
P        0.87463301       0.82199156       2.19311508       0.00000000 NULL
P        3.03393768       4.12626207      10.14033876       0.00000000 NULL
P        3.03393768       5.78664938       2.12644360       0.00000000 NULL
P        2.57246369       2.07966468       1.49571570       0.00000000 NULL
P        2.57246369       0.41927737       9.50961087       0.00000000 NULL
P        3.84245385       5.93552785       4.32970753       0.00000000 NULL
P        3.84245385       3.97738359       7.93707483       0.00000000 NULL
P        1.76394751       0.27039890       7.30634694       0.00000000 NULL
P        1.76394751       2.22854316       3.69897963       0.00000000 NULL
16
Lattice="5.516442162020373 0.0 0.0 0.0 7.342868803956275 1.213532512411723 0.0 -1.262429824979011 10.098693001660989" Properties=species:S:1:pos:R:3:initial_magmoms:R:1:castep_labels:S:1 n_minim_iter=14 pbc="T T T"
P        4.79098974       0.22803382       9.36954747       0.00000000 NULL
P        4.79098974       2.18097076       1.33591179       0.00000000 NULL
P        0.72545242       5.85240516       1.94267805       0.00000000 NULL
P        0.72545242       3.89946822       9.97631373       0.00000000 NULL
P        4.65586250       4.47483722       2.74208211       0.00000000 NULL
P        4.65586250       5.27703616       9.17690966       0.00000000 NULL
P        0.86057966       1.60560176       8.57014340       0.00000000 NULL
P        0.86057966       0.80340282       2.13531586       0.00000000 NULL
P        2.98620045       4.02724435       9.86012697       0.00000000 NULL
P        2.98620045       5.72462903       2.05886481       0.00000000 NULL
P        2.53024172       2.05319463       1.45209855       0.00000000 NULL
P        2.53024172       0.35580995       9.25336071       0.00000000 NULL
P        3.78010989       5.85560254       4.19926332       0.00000000 NULL
P        3.78010989       3.89627084       7.71972846       0.00000000 NULL
P        1.73633227       0.22483644       7.11296220       0.00000000 NULL
P        1.73633227       2.18416814       3.59249706       0.00000000 NULL
