24
Lattice="5.243469999999999 0.0 0.0 0.0 9.13727 0.0 0.0 0.0 11.20687" Properties=species:S:1:pos:R:3:initial_magmoms:R:1:castep_labels:S:1 n_minim_iter=1 pbc="T T T"
P        3.48237300       6.74927555       1.63668604       0.00000000 NULL
P        0.86063800       6.95662945       9.57018396       0.00000000 NULL
P        4.38283200       2.38799445       7.24012104       0.00000000 NULL
P        1.76109700       2.18064055       3.96674896       0.00000000 NULL
P        3.49313207       7.92739037       6.23996056       0.00000000 NULL
P        0.87139707       5.77851463       4.96690944       0.00000000 NULL
P        4.37207293       1.20987963       0.63652556       0.00000000 NULL
P        1.75033793       3.35875537      10.57034444       0.00000000 NULL
P        4.46955008       6.68486237      10.69148958       0.00000000 NULL
P        1.84781508       7.02104263       0.51538042       0.00000000 NULL
P        3.39565492       2.45240763       5.08805458       0.00000000 NULL
P        0.77391992       2.11622737       6.11881542       0.00000000 NULL
P        2.13829336       8.47681990       1.98995572       0.00000000 NULL
P        4.76002836       5.22908510       9.21691428       0.00000000 NULL
P        0.48344164       0.66045010       7.59339072       0.00000000 NULL
P        3.10517664       3.90818490       3.61347928       0.00000000 NULL
P        4.91167895       1.71967716       3.97763083       0.00000000 NULL
P        2.28994395       2.84895784       7.22923917       0.00000000 NULL
P        2.95352605       7.41759284       9.58106583       0.00000000 NULL
P        0.33179105       6.28831216       1.62580417       0.00000000 NULL
P        4.72576438       8.37400460       0.56049703       0.00000000 NULL
P        2.10402938       5.33190040      10.64637297       0.00000000 NULL
P        3.13944062       0.76326540       6.16393203       0.00000000 NULL
P        0.51770562       3.80536960       5.04293797       0.00000000 NULL
24
Lattice="5.285316932901363 0.0 0.0 0.0 9.170962244755087 0.0 0.0 0.0 11.25930329101831" Properties=species:S:1:pos:R:3:initial_magmoms:R:1:castep_labels:S:1 n_minim_iter=2 pbc="T T T"
P        3.51022716       6.77417053       1.64470815       0.00000000 NULL
P        0.86756869       6.98227283       9.61459514       0.00000000 NULL
P        4.41774824       2.39679171       7.27435980       0.00000000 NULL
P        1.77508977       2.18868941       3.98494349       0.00000000 NULL
P        3.52103831       7.95655468       6.26914024       0.00000000 NULL
P        0.87837984       5.79988868       4.99016305       0.00000000 NULL
P        4.40693709       1.21440756       0.63948860       0.00000000 NULL
P        1.76427862       3.37107356      10.61981469       0.00000000 NULL
P        4.50511047       6.70923046      10.74164518       0.00000000 NULL
P        1.86245201       7.04721291       0.51765811       0.00000000 NULL
P        3.42286493       2.46173178       5.11199354       0.00000000 NULL
P        0.78020646       2.12374934       6.14730976       0.00000000 NULL
P        2.15537000       8.50825419       1.99941434       0.00000000 NULL
P        4.79802847       5.24818917       9.25988895       0.00000000 NULL
P        0.48728847       0.66270805       7.62906599       0.00000000 NULL
P        3.12994693       3.92277307       3.63023730       0.00000000 NULL
P        4.95088270       1.72581560       3.99598877       0.00000000 NULL
P        2.30822423       2.85966553       7.26331452       0.00000000 NULL
P        2.97709270       7.44514665       9.62564042       0.00000000 NULL
P        0.33443423       6.31129672       1.63366287       0.00000000 NULL
P        4.76355546       8.40511774       0.56337542       0.00000000 NULL
P        2.12089700       5.35132563      10.69592787       0.00000000 NULL
P        3.16441994       0.76584450       6.19302707       0.00000000 NULL
P        0.52176147       3.81963662       5.06627622       0.00000000 NULL
24
Lattice="5.9049095551225514 0.0 0.0 0.0 9.630858105688326 0.0 0.0 0.0 12.009843364299577" Properties=species:S:1:pos:R:3:initial_magmoms:R:1:castep_labels:S:1 n_minim_iter=3 pbc="T T T"
P        3.92249597       7.11418101       1.75979157       0.00000000 NULL
P        0.97004119       7.33210615      10.25005180       0.00000000 NULL
P        4.93486836       2.51667710       7.76471325       0.00000000 NULL
P        1.98241359       2.29875196       4.24513011       0.00000000 NULL
P        3.93423522       8.35467097       6.68679287       0.00000000 NULL
P        0.98178044       6.09161619       5.32305050       0.00000000 NULL
P        4.92312911       1.27618714       0.68187118       0.00000000 NULL
P        1.97067434       3.53924192      11.32797218       0.00000000 NULL
P        5.03155723       7.04152031      11.45947560       0.00000000 NULL
P        2.07910246       7.40476685       0.55036776       0.00000000 NULL
P        3.82580710       2.58933779       5.45455392       0.00000000 NULL
P        0.87335232       2.22609126       6.55528944       0.00000000 NULL
P        2.40825393       8.93736259       2.13490568       0.00000000 NULL
P        5.36070871       5.50892457       9.87493768       0.00000000 NULL
P        0.54420085       0.69349552       8.13982737       0.00000000 NULL
P        3.49665563       4.12193353       3.87001600       0.00000000 NULL
P        5.53120601       1.80946312       4.25872329       0.00000000 NULL
P        2.57875123       3.00596593       7.75112007       0.00000000 NULL
P        3.32615832       7.82139499      10.26364497       0.00000000 NULL
P        0.37370354       6.62489217       1.74619839       0.00000000 NULL
P        5.32315151       8.83009893       0.60487489       0.00000000 NULL
P        2.37069673       5.61618823      11.40496847       0.00000000 NULL
P        3.53421282       0.80075917       6.60979657       0.00000000 NULL
P        0.58175805       4.01466988       5.40004679       0.00000000 NULL
24
Lattice="6.056885796111319 0.0 0.0 0.0 9.427789850165349 0.0 0.0 0.0 12.112047427406162" Properties=species:S:1:pos:R:3:initial_magmoms:R:1:castep_labels:S:1 n_minim_iter=4 pbc="T T T"
P        4.02241294       6.96691542       1.77633346       0.00000000 NULL
P        0.99397004       7.17476935      10.33571396       0.00000000 NULL
P        5.06291575       2.46087443       7.83235718       0.00000000 NULL
P        2.03447286       2.25302050       4.27969025       0.00000000 NULL
P        4.03550116       8.17951966       6.74334206       0.00000000 NULL
P        1.00705826       5.96216511       5.36870537       0.00000000 NULL
P        5.04982753       1.24827019       0.68731834       0.00000000 NULL
P        2.02138463       3.46562474      11.42472908       0.00000000 NULL
P        5.16037017       6.89113840      11.55724607       0.00000000 NULL
P        2.13192727       7.25054637       0.55480136       0.00000000 NULL
P        3.92495853       2.53665145       5.50122235       0.00000000 NULL
P        0.89651563       2.17724348       6.61082508       0.00000000 NULL
P        2.47119651       8.74811125       2.15361445       0.00000000 NULL
P        5.49963941       5.39357352       9.95843297       0.00000000 NULL
P        0.55724639       0.67967860       8.20963817       0.00000000 NULL
P        3.58568928       4.03421633       3.90240926       0.00000000 NULL
P        5.67289985       1.77122628       4.29519180       0.00000000 NULL
P        2.64445695       2.94266865       7.81685562       0.00000000 NULL
P        3.41242885       7.65656357      10.35121552       0.00000000 NULL
P        0.38398595       6.48512120       1.76083191       0.00000000 NULL
P        5.46025259       8.64487835       0.61347204       0.00000000 NULL
P        2.43180969       5.49680643      11.49857539       0.00000000 NULL
P        3.62507610       0.78291151       6.66949575       0.00000000 NULL
P        0.59663320       3.93098342       5.44255168       0.00000000 NULL
24
Lattice="6.250937057187934 0.0 0.0 0.0 9.07816069256986 0.0 0.0 0.0 12.231487979016343" Properties=species:S:1:pos:R:3:initial_magmoms:R:1:castep_labels:S:1 n_minim_iter=5 pbc="T T T"
P        4.14814340       6.71456987       1.79589320       0.00000000 NULL
P        1.02267487       6.90267117      10.43559478       0.00000000 NULL
P        5.22826218       2.36359082       7.91163719       0.00000000 NULL
P        2.10279366       2.17548953       4.31985079       0.00000000 NULL
P        4.16523953       7.87679671       6.80889403       0.00000000 NULL
P        1.03977100       5.74044433       5.42259395       0.00000000 NULL
P        5.21116605       1.20136399       0.69315004       0.00000000 NULL
P        2.08569752       3.33771636      11.53833794       0.00000000 NULL
P        5.32430814       6.63142431      11.67117601       0.00000000 NULL
P        2.19883961       6.98581673       0.56031197       0.00000000 NULL
P        4.05209745       2.44673638       5.55543202       0.00000000 NULL
P        0.92662892       2.09234396       6.67605595       0.00000000 NULL
P        2.55311902       8.42182622       2.17618168       0.00000000 NULL
P        5.67858755       5.19541482      10.05530630       0.00000000 NULL
P        0.57234951       0.65633447       8.29192567       0.00000000 NULL
P        3.69781804       3.88274588       3.93956231       0.00000000 NULL
P        5.85318919       1.70636264       4.33915457       0.00000000 NULL
P        2.72772067       2.83271771       7.89233341       0.00000000 NULL
P        3.52321639       7.37179805      10.45489856       0.00000000 NULL
P        0.39774786       6.24544299       1.77658942       0.00000000 NULL
P        5.63585871       8.32483773       0.62852061       0.00000000 NULL
P        2.51039018       5.29240330      11.60296736       0.00000000 NULL
P        3.74054688       0.75332296       6.74426460       0.00000000 NULL
P        0.61507835       3.78575739       5.48722337       0.00000000 NULL
24
Lattice="6.255552352771195 0.0 0.0 0.0 9.101259147617226 0.0 0.0 0.0 12.288917816912235" Properties=species:S:1:pos:R:3:initial_magmoms:R:1:castep_labels:S:1 n_minim_iter=6 pbc="T T T"
P        4.14761611       6.73655520       1.80478148       0.00000000 NULL
P        1.01983993       6.91533353      10.48413633       0.00000000 NULL
P        5.23571242       2.36470395       7.94924039       0.00000000 NULL
P        2.10793624       2.18592562       4.33967743       0.00000000 NULL
P        4.16975891       7.89382895       6.83986960       0.00000000 NULL
P        1.04198273       5.75805977       5.44904821       0.00000000 NULL
P        5.21356962       1.20743019       0.69541069       0.00000000 NULL
P        2.08579344       3.34319938      11.59350712       0.00000000 NULL
P        5.32681027       6.64426256      11.72484936       0.00000000 NULL
P        2.19903409       7.00762616       0.56406846       0.00000000 NULL
P        4.05651826       2.45699659       5.58039045       0.00000000 NULL
P        0.92874208       2.09363298       6.70852736       0.00000000 NULL
P        2.55807844       8.44188357       2.18796959       0.00000000 NULL
P        5.68585461       5.21000515      10.10094822       0.00000000 NULL
P        0.56969774       0.65937557       8.33242850       0.00000000 NULL
P        3.69747392       3.89125400       3.95648932       0.00000000 NULL
P        5.85606264       1.71221879       4.36191325       0.00000000 NULL
P        2.72828646       2.83841078       7.92700457       0.00000000 NULL
P        3.52726589       7.38904035      10.50637215       0.00000000 NULL
P        0.39948971       6.26284837       1.78254566       0.00000000 NULL
P        5.64181460       8.34385368       0.64109063       0.00000000 NULL
P        2.51403842       5.30803504      11.64782718       0.00000000 NULL
P        3.74151393       0.75740547       6.78554954       0.00000000 NULL
P        0.61373775       3.79322410       5.50336828       0.00000000 NULL
24
Lattice="6.247364326856981 0.0 0.0 0.0 9.062987021405176 0.0 0.0 0.0 12.303784945792946" Properties=species:S:1:pos:R:3:initial_magmoms:R:1:castep_labels:S:1 n_minim_iter=7 pbc="T T T"
P        4.13982503       6.71141097       1.80716717       0.00000000 NULL
P        1.01614287       6.88306957      10.49661777       0.00000000 NULL
P        5.23122146       2.35157605       7.95905965       0.00000000 NULL
P        2.10753929       2.17991746       4.34472530       0.00000000 NULL
P        4.16512286       7.85908224       6.84749928       0.00000000 NULL
P        1.04144069       5.73539829       5.45628566       0.00000000 NULL
P        5.20592364       1.20390478       0.69560681       0.00000000 NULL
P        2.08224147       3.32758873      11.60817814       0.00000000 NULL
P        5.31904514       6.61401311      11.73844108       0.00000000 NULL
P        2.19536298       6.98046742       0.56534387       0.00000000 NULL
P        4.05200135       2.44897391       5.58654860       0.00000000 NULL
P        0.92831919       2.08251960       6.71723634       0.00000000 NULL
P        2.55671881       8.40544599       2.19156562       0.00000000 NULL
P        5.68040098       5.18903454      10.11221933       0.00000000 NULL
P        0.56696335       0.65754103       8.34345809       0.00000000 NULL
P        3.69064551       3.87395248       3.96032686       0.00000000 NULL
P        5.84741053       1.70601498       4.36877444       0.00000000 NULL
P        2.72372837       2.82547853       7.93501051       0.00000000 NULL
P        3.52363596       7.35697205      10.52066691       0.00000000 NULL
P        0.39995380       6.23750849       1.78311804       0.00000000 NULL
P        5.63531793       8.30736084       0.64781849       0.00000000 NULL
P        2.51163577       5.28711969      11.65596645       0.00000000 NULL
P        3.73572856       0.75562618       6.79971096       0.00000000 NULL
P        0.61204639       3.77586733       5.50407398       0.00000000 NULL
24
Lattice="6.252624524052233 0.0 0.0 0.0 9.053862946146632 0.0 0.0 0.0 12.333288862999623" Properties=species:S:1:pos:R:3:initial_magmoms:R:1:castep_labels:S:1 n_minim_iter=8 pbc="T T T"
P        4.14111047       6.70747402       1.81174034       0.00000000 NULL
P        1.01479821       6.87332040      10.52154852       0.00000000 NULL
P        5.23782631       2.34638893       7.97838477       0.00000000 NULL
P        2.11151405       2.18054254       4.35490409       0.00000000 NULL
P        4.16942329       7.84956474       6.86332098       0.00000000 NULL
P        1.04311103       5.73122968       5.46996789       0.00000000 NULL
P        5.20951349       1.20429821       0.69667654       0.00000000 NULL
P        2.08320123       3.32263327      11.63661232       0.00000000 NULL
P        5.32283410       6.60525949      11.76606828       0.00000000 NULL
P        2.19652184       6.97553493       0.56722058       0.00000000 NULL
P        4.05610269       2.44860346       5.59942385       0.00000000 NULL
P        0.92979042       2.07832802       6.73386502       0.00000000 NULL
P        2.56063257       8.39622684       2.19779787       0.00000000 NULL
P        5.68694484       5.18456758      10.13549100       0.00000000 NULL
P        0.56567969       0.65763611       8.36444230       0.00000000 NULL
P        3.69199195       3.86929536       3.96884656       0.00000000 NULL
P        5.85136678       1.70516711       4.38065659       0.00000000 NULL
P        2.72505452       2.82176436       7.95263228       0.00000000 NULL
P        3.52757000       7.34869583      10.54730102       0.00000000 NULL
P        0.40125774       6.23209859       1.78598785       0.00000000 NULL
P        5.64091530       8.29760227       0.65484671       0.00000000 NULL
P        2.51460304       5.28319215      11.67844216       0.00000000 NULL
P        3.73802148       0.75626068       6.82149114       0.00000000 NULL
P        0.61170922       3.77067079       5.51179772       0.00000000 NULL
24
Lattice="6.25613978802713 0.0 0.0 0.0 9.012841045474097 0.0 0.0 0.0 12.39530794593228" Properties=species:S:1:pos:R:3:initial_magmoms:R:1:castep_labels:S:1 n_minim_iter=9 pbc="T T T"
P        4.13766799       6.68427289       1.82138373       0.00000000 NULL
P        1.00959810       6.83498868      10.57392421       0.00000000 NULL
P        5.24654169       2.32856816       8.01903771       0.00000000 NULL
P        2.11847179       2.17785237       4.37627024       0.00000000 NULL
P        4.17377938       7.80996916       6.89626387       0.00000000 NULL
P        1.04570948       5.70929241       5.49904408       0.00000000 NULL
P        5.21043030       1.20287188       0.69860990       0.00000000 NULL
P        2.08236041       3.30354864      11.69669805       0.00000000 NULL
P        5.32416447       6.57017183      11.82393984       0.00000000 NULL
P        2.19609457       6.94908974       0.57136810       0.00000000 NULL
P        4.06004521       2.44266922       5.62628587       0.00000000 NULL
P        0.93197532       2.06375130       6.76902208       0.00000000 NULL
P        2.56660929       8.35625685       2.21139980       0.00000000 NULL
P        5.69467918       5.16300472      10.18390815       0.00000000 NULL
P        0.56146061       0.65658419       8.40905377       0.00000000 NULL
P        3.68953050       3.84983633       3.98625418       0.00000000 NULL
P        5.85205099       1.69969225       4.40637410       0.00000000 NULL
P        2.72398109       2.80672828       7.98893385       0.00000000 NULL
P        3.53215869       7.31314880      10.60402807       0.00000000 NULL
P        0.40408880       6.20611277       1.79127987       0.00000000 NULL
P        5.64611632       8.25627337       0.67217240       0.00000000 NULL
P        2.51804642       5.26298820      11.72313554       0.00000000 NULL
P        3.73809337       0.75656767       6.86982637       0.00000000 NULL
P        0.61002347       3.74985285       5.52548157       0.00000000 NULL
24
Lattice="6.317894622217155 0.0 0.0 0.0 8.836631596088194 0.0 0.0 0.0 12.787045235237997" Properties=species:S:1:pos:R:3:initial_magmoms:R:1:castep_labels:S:1 n_minim_iter=10 pbc="T T T"
P        4.13996090       6.59692497       1.88222218       0.00000000 NULL
P        0.98101359       6.65802243      10.90482306       0.00000000 NULL
P        5.33688103       2.23970663       8.27574480       0.00000000 NULL
P        2.17793372       2.17860917       4.51130044       0.00000000 NULL
P        4.22783596       7.63130327       7.10347780       0.00000000 NULL
P        1.06888865       5.62364412       5.68356744       0.00000000 NULL
P        5.24900597       1.20532832       0.70995518       0.00000000 NULL
P        2.09005866       3.21298748      12.07709006       0.00000000 NULL
P        5.36780663       6.41177510      12.18989204       0.00000000 NULL
P        2.20885932       6.84317230       0.59715320       0.00000000 NULL
P        4.10903530       2.42485650       5.79636942       0.00000000 NULL
P        0.95008799       1.99345930       6.99067581       0.00000000 NULL
P        2.62028049       8.18215392       2.29967751       0.00000000 NULL
P        5.77922780       5.07279348      10.48736772       0.00000000 NULL
P        0.53866682       0.65447768       8.69320013       0.00000000 NULL
P        3.69761413       3.76383812       4.09384510       0.00000000 NULL
P        5.89090484       1.68019437       4.56981539       0.00000000 NULL
P        2.73195753       2.73812143       8.21722985       0.00000000 NULL
P        3.58593709       7.15643722      10.96333801       0.00000000 NULL
P        0.42698978       6.09851017       1.82370723       0.00000000 NULL
P        5.71326178       8.06911980       0.78410787       0.00000000 NULL
P        2.55431447       5.18582760      12.00293737       0.00000000 NULL
P        3.76358015       0.76751180       7.17763048       0.00000000 NULL
P        0.60463284       3.65080400       5.60941475       0.00000000 NULL
24
Lattice="6.09685980407132 0.0 0.0 0.0 8.177825472322983 0.0 0.0 0.0 12.378789504277602" Properties=species:S:1:pos:R:3:initial_magmoms:R:1:castep_labels:S:1 n_minim_iter=11 pbc="T T T"
P        3.95997337       6.12965715       1.82355693       0.00000000 NULL
P        0.91154346       6.13708106      10.55523258       0.00000000 NULL
P        5.18531634       2.04816832       8.01295168       0.00000000 NULL
P        2.13688644       2.04074441       4.36583783       0.00000000 NULL
P        4.08737504       7.04749609       6.86889921       0.00000000 NULL
P        1.03894514       5.21924212       5.50989029       0.00000000 NULL
P        5.05791466       1.13032938       0.67950446       0.00000000 NULL
P        2.00948476       2.95858336      11.69928505       0.00000000 NULL
P        5.18210954       5.92003600      11.79570131       0.00000000 NULL
P        2.13367964       6.34670221       0.58308820       0.00000000 NULL
P        3.96318017       2.25778948       5.60630655       0.00000000 NULL
P        0.91475026       1.83112326       6.77248295       0.00000000 NULL
P        2.54496631       7.56993793       2.24606138       0.00000000 NULL
P        5.59339621       4.69680028      10.13272812       0.00000000 NULL
P        0.50346359       0.60788754       8.43545613       0.00000000 NULL
P        3.55189349       3.48102520       3.94333337       0.00000000 NULL
P        5.65683187       1.56342873       4.44419619       0.00000000 NULL
P        2.60840197       2.52548401       7.93459331       0.00000000 NULL
P        3.48845784       6.61439674      10.63359094       0.00000000 NULL
P        0.44002794       5.65234147       1.74519856       0.00000000 NULL
P        5.50817809       7.44441734       0.81812020       0.00000000 NULL
P        2.45974819       4.82232087      11.56066930       0.00000000 NULL
P        3.63711162       0.73340813       7.00751496       0.00000000 NULL
P        0.58868171       3.35550460       5.37127455       0.00000000 NULL
24
Lattice="6.428753954533892 0.0 0.0 0.0 8.68753957125756 0.0 0.0 0.0 12.789858908003069" Properties=species:S:1:pos:R:3:initial_magmoms:R:1:castep_labels:S:1 n_minim_iter=12 pbc="T T T"
P        4.17629819       6.51025553       1.88543078       0.00000000 NULL
P        0.96192121       6.52105383      10.90442813       0.00000000 NULL
P        5.46683275       2.17728404       8.28036024       0.00000000 NULL
P        2.25245577       2.16648575       4.50949867       0.00000000 NULL
P        4.31118149       7.48262336       7.09609530       0.00000000 NULL
P        1.09680452       5.54868600       5.69376361       0.00000000 NULL
P        5.33194944       1.20491621       0.70116585       0.00000000 NULL
P        2.11757246       3.13885357      12.08869306       0.00000000 NULL
P        5.46462634       6.28754561      12.18848962       0.00000000 NULL
P        2.25024937       6.74376374       0.60136928       0.00000000 NULL
P        4.17850459       2.39999396       5.79356017       0.00000000 NULL
P        0.96412761       1.94377583       6.99629874       0.00000000 NULL
P        2.68149666       8.04442815       2.32407463       0.00000000 NULL
P        5.89587364       4.98688121      10.46578428       0.00000000 NULL
P        0.53288032       0.64311142       8.71900408       0.00000000 NULL
P        3.74725729       3.70065836       4.07085483       0.00000000 NULL
P        5.96345425       1.65973024       4.59077359       0.00000000 NULL
P        2.74907727       2.68403954       8.19908532       0.00000000 NULL
P        3.67967669       7.02780933      10.98570304       0.00000000 NULL
P        0.46529971       6.00350003       1.80415586       0.00000000 NULL
P        5.80892808       7.90706270       0.84857350       0.00000000 NULL
P        2.59455110       5.12424666      11.94128541       0.00000000 NULL
P        3.83420285       0.78047687       7.24350296       0.00000000 NULL
P        0.61982587       3.56329292       5.54635595       0.00000000 NULL
24
Lattice="6.403140488150575 0.0 0.0 0.0 8.668402611099527 0.0 0.0 0.0 12.788838376536528" Properties=species:S:1:pos:R:3:initial_magmoms:R:1:castep_labels:S:1 n_minim_iter=13 pbc="T T T"
P        4.15824336       6.49655898       1.88552903       0.00000000 NULL
P        0.95667312       6.50604494      10.90330935       0.00000000 NULL
P        5.44646737       2.17184363       8.27994822       0.00000000 NULL
P        2.24489713       2.16235767       4.50889016       0.00000000 NULL
P        4.29422068       7.46567421       7.09517900       0.00000000 NULL
P        1.09265044       5.53692971       5.69365937       0.00000000 NULL
P        5.31049005       1.20272840       0.70075982       0.00000000 NULL
P        2.10891980       3.13147291      12.08807856       0.00000000 NULL
P        5.44301092       6.27309695      12.18725797       0.00000000 NULL
P        2.24144067       6.72950696       0.60158041       0.00000000 NULL
P        4.16169982       2.39530566       5.79283878       0.00000000 NULL
P        0.96012957       1.93889565       6.99599959       0.00000000 NULL
P        2.67130033       8.02699685       2.32503984       0.00000000 NULL
P        5.87287057       4.97560706      10.46379854       0.00000000 NULL
P        0.53026991       0.64140576       8.71945902       0.00000000 NULL
P        3.73184016       3.69279555       4.06937935       0.00000000 NULL
P        5.93813290       1.65627744       4.59123550       0.00000000 NULL
P        2.73656266       2.67792386       8.19760288       0.00000000 NULL
P        3.66657783       7.01212517      10.98565469       0.00000000 NULL
P        0.46500758       5.99047875       1.80318369       0.00000000 NULL
P        5.78514806       7.88899495       0.85083563       0.00000000 NULL
P        2.58357782       5.11360896      11.93800274       0.00000000 NULL
P        3.81956267       0.77940766       7.24525482       0.00000000 NULL
P        0.61799243       3.55479365       5.54358356       0.00000000 NULL
24
Lattice="6.395305914998457 0.0 0.0 0.0 8.664895631713424 0.0 0.0 0.0 12.806834595622666" Properties=species:S:1:pos:R:3:initial_magmoms:R:1:castep_labels:S:1 n_minim_iter=14 pbc="T T T"
P        4.15158114       6.49457357       1.88852853       0.00000000 NULL
P        0.95392818       6.50276988      10.91830606       0.00000000 NULL
P        5.44137774       2.17032206       8.29194583       0.00000000 NULL
P        2.24372478       2.16212575       4.51488876       0.00000000 NULL
P        4.28922259       7.46201574       7.10472078       0.00000000 NULL
P        1.09156964       5.53532771       5.70211381       0.00000000 NULL
P        5.30373628       1.20287990       0.70130349       0.00000000 NULL
P        2.10608332       3.12956792      12.10553111       0.00000000 NULL
P        5.43661218       6.26981875      12.20418303       0.00000000 NULL
P        2.23895923       6.72752470       0.60265157       0.00000000 NULL
P        4.15634669       2.39507688       5.80076573       0.00000000 NULL
P        0.95869373       1.93737093       7.00606886       0.00000000 NULL
P        2.66843532       8.02420400       2.32979245       0.00000000 NULL
P        5.86608828       4.97313945      10.47704214       0.00000000 NULL
P        0.52921764       0.64069163       8.73320975       0.00000000 NULL
P        3.72687059       3.69175618       4.07362484       0.00000000 NULL
P        5.92900784       1.65577311       4.59856268       0.00000000 NULL
P        2.73135489       2.67667470       8.20827192       0.00000000 NULL
P        3.66395103       7.00912252      11.00197997       0.00000000 NULL
P        0.46629807       5.98822093       1.80485462       0.00000000 NULL
P        5.77732886       7.88505372       0.85477798       0.00000000 NULL
P        2.57967590       5.11228973      11.95205662       0.00000000 NULL
P        3.81563001       0.77984192       7.25819527       0.00000000 NULL
P        0.61797706       3.55260590       5.54863932       0.00000000 NULL
24
Lattice="6.388792305390506 0.0 0.0 0.0 8.656843913294187 0.0 0.0 0.0 12.8522911086851" Properties=species:S:1:pos:R:3:initial_magmoms:R:1:castep_labels:S:1 n_minim_iter=15 pbc="T T T"
P        4.14364115       6.48997953       1.89608729       0.00000000 NULL
P        0.94924499       6.49528634      10.95620381       0.00000000 NULL
P        5.43954731       2.16686438       8.32223285       0.00000000 NULL
P        2.24515116       2.16155758       4.53005826       0.00000000 NULL
P        4.28544579       7.45358681       7.12889058       0.00000000 NULL
P        1.09104964       5.53167906       5.72340053       0.00000000 NULL
P        5.29774267       1.20325710       0.70274503       0.00000000 NULL
P        2.10334651       3.12516486      12.14954608       0.00000000 NULL
P        5.43180266       6.26222142      12.24698237       0.00000000 NULL
P        2.23740650       6.72304445       0.60530873       0.00000000 NULL
P        4.15138580       2.39462250       5.82083682       0.00000000 NULL
P        0.95698965       1.93379946       7.03145429       0.00000000 NULL
P        2.66651035       8.01787234       2.34163040       0.00000000 NULL
P        5.86090651       4.96739353      10.51066071       0.00000000 NULL
P        0.52788580       0.63897157       8.76777596       0.00000000 NULL
P        3.72228195       3.68945039       4.08451515       0.00000000 NULL
P        5.91847551       1.65458950       4.61687863       0.00000000 NULL
P        2.72407935       2.67383245       8.23541248       0.00000000 NULL
P        3.66471295       7.00225441      11.04302418       0.00000000 NULL
P        0.47031680       5.98301146       1.80926693       0.00000000 NULL
P        5.76962221       7.87594920       0.86426368       0.00000000 NULL
P        2.57522606       5.10931667      11.98802743       0.00000000 NULL
P        3.81356624       0.78089472       7.29040924       0.00000000 NULL
P        0.61917009       3.54752724       5.56188187       0.00000000 NULL
24
Lattice="6.3893510963939635 0.0 0.0 0.0 8.606352668730027 0.0 0.0 0.0 12.95490311721514" Properties=species:S:1:pos:R:3:initial_magmoms:R:1:castep_labels:S:1 n_minim_iter=16 pbc="T T T"
P        4.13315823       6.45589969       1.91380288       0.00000000 NULL
P        0.93848268       6.45362931      11.04110024       0.00000000 NULL
P        5.45086841       2.15045298       8.39125443       0.00000000 NULL
P        2.25619286       2.15272335       4.56364868       0.00000000 NULL
P        4.28748069       7.40596620       7.18283202       0.00000000 NULL
P        1.09280514       5.50356280       5.77207109       0.00000000 NULL
P        5.29654595       1.20038647       0.70538046       0.00000000 NULL
P        2.10187041       3.10278987      12.24952265       0.00000000 NULL
P        5.43491611       6.22054255      12.34307391       0.00000000 NULL
P        2.24024056       6.68898646       0.61182921       0.00000000 NULL
P        4.14911054       2.38581012       5.86562235       0.00000000 NULL
P        0.95443499       1.91736621       7.08928077       0.00000000 NULL
P        2.66828878       7.97444673       2.37078295       0.00000000 NULL
P        5.86296433       4.93508227      10.58412017       0.00000000 NULL
P        0.52638677       0.63190594       8.84823451       0.00000000 NULL
P        3.72106232       3.67127040       4.10666861       0.00000000 NULL
P        5.90532679       1.64586870       4.65935049       0.00000000 NULL
P        2.71065124       2.65730763       8.29555262       0.00000000 NULL
P        3.67869985       6.96048396      11.13680205       0.00000000 NULL
P        0.48402431       5.94904504       1.81810106       0.00000000 NULL
P        5.76439417       7.82473831       0.88945274       0.00000000 NULL
P        2.56971862       5.08479070      12.06545038       0.00000000 NULL
P        3.81963248       0.78161436       7.36690430       0.00000000 NULL
P        0.62495693       3.52156197       5.58799882       0.00000000 NULL
24
Lattice="6.409565343348415 0.0 0.0 0.0 8.588852715227668 0.0 0.0 0.0 13.05833497055138" Properties=species:S:1:pos:R:3:initial_magmoms:R:1:castep_labels:S:1 n_minim_iter=17 pbc="T T T"
P        4.12440027       6.44745505       1.93463384       0.00000000 NULL
P        0.91961760       6.43582402      11.12370113       0.00000000 NULL
P        5.48994774       2.14139767       8.46380132       0.00000000 NULL
P        2.28516507       2.15302869       4.59453365       0.00000000 NULL
P        4.30464847       7.38149896       7.23413487       0.00000000 NULL
P        1.09986580       5.50178012       5.82420010       0.00000000 NULL
P        5.30969954       1.20735376       0.70496739       0.00000000 NULL
P        2.10491687       3.08707260      12.35336758       0.00000000 NULL
P        5.45952428       6.19704483      12.43691257       0.00000000 NULL
P        2.25474161       6.68623424       0.62142240       0.00000000 NULL
P        4.15482373       2.39180788       5.90774508       0.00000000 NULL
P        0.95004106       1.90261848       7.15058989       0.00000000 NULL
P        2.67567666       7.96616254       2.41165540       0.00000000 NULL
P        5.88045934       4.91711654      10.64667958       0.00000000 NULL
P        0.52910601       0.62269018       8.94082288       0.00000000 NULL
P        3.73388868       3.67173618       4.11751209       0.00000000 NULL
P        5.89269288       1.64371103       4.70660902       0.00000000 NULL
P        2.68791021       2.65071533       8.35172595       0.00000000 NULL
P        3.72165513       6.94514169      11.23577651       0.00000000 NULL
P        0.51687246       5.93813739       1.82255846       0.00000000 NULL
P        5.76936048       7.79665827       0.93122994       0.00000000 NULL
P        2.56457781       5.08662080      12.12710503       0.00000000 NULL
P        3.84498754       0.79219444       7.46039743       0.00000000 NULL
P        0.64020486       3.50223192       5.59793754       0.00000000 NULL
24
Lattice="6.3639338597166235 0.0 0.0 0.0 8.441431361774523 0.0 0.0 0.0 13.01650128871187" Properties=species:S:1:pos:R:3:initial_magmoms:R:1:castep_labels:S:1 n_minim_iter=18 pbc="T T T"
P        4.09094399       6.33728599       1.92977168       0.00000000 NULL
P        0.90897706       6.32486106      11.08672960       0.00000000 NULL
P        5.45495680       2.10414538       8.43802233       0.00000000 NULL
P        2.27298987       2.11657030       4.57847896       0.00000000 NULL
P        4.27433916       7.25414095       7.21004362       0.00000000 NULL
P        1.09237224       5.40800609       5.80645767       0.00000000 NULL
P        5.27156162       1.18729041       0.70179298       0.00000000 NULL
P        2.08959469       3.03342527      12.31470831       0.00000000 NULL
P        5.42255017       6.08861848      12.39625210       0.00000000 NULL
P        2.24058324       6.57352857       0.62024919       0.00000000 NULL
P        4.12335062       2.35281289       5.88800145       0.00000000 NULL
P        0.94138369       1.86790280       7.12849984       0.00000000 NULL
P        2.65573396       7.83075440       2.40775349       0.00000000 NULL
P        5.83770089       4.83139265      10.60874780       0.00000000 NULL
P        0.52623297       0.61067697       8.91600414       0.00000000 NULL
P        3.70819990       3.61003872       4.10049715       0.00000000 NULL
P        5.84434326       1.61574793       4.69301815       0.00000000 NULL
P        2.66237633       2.60496776       8.32348314       0.00000000 NULL
P        3.70155753       6.82568344      11.20126879       0.00000000 NULL
P        0.51959060       5.83646361       1.81523250       0.00000000 NULL
P        5.72512151       7.66091661       0.93358115       0.00000000 NULL
P        2.54315458       5.00123043      12.08292014       0.00000000 NULL
P        3.82077928       0.78051475       7.44183179       0.00000000 NULL
P        0.63881235       3.44020093       5.57466950       0.00000000 NULL
24
Lattice="6.411538620227406 0.0 0.0 0.0 8.504942668472973 0.0 0.0 0.0 13.083634034927863" Properties=species:S:1:pos:R:3:initial_magmoms:R:1:castep_labels:S:1 n_minim_iter=19 pbc="T T T"
P        4.12076508       6.38458668       1.94028134       0.00000000 NULL
P        0.91499577       6.37282732      11.14335269       0.00000000 NULL
P        5.49654285       2.12035598       8.48209836       0.00000000 NULL
P        2.29077354       2.13211535       4.60153567       0.00000000 NULL
P        4.30657312       7.30779699       7.24673571       0.00000000 NULL
P        1.10080381       5.44961702       5.83689833       0.00000000 NULL
P        5.31073481       1.19714568       0.70491869       0.00000000 NULL
P        2.10496550       3.05532565      12.37871535       0.00000000 NULL
P        5.46379091       6.13366129      12.46019703       0.00000000 NULL
P        2.25802160       6.62375271       0.62343701       0.00000000 NULL
P        4.15351702       2.37128138       5.91838001       0.00000000 NULL
P        0.94774771       1.88118995       7.16525402       0.00000000 NULL
P        2.67473549       7.89057423       2.42187930       0.00000000 NULL
P        5.88050480       4.86683977      10.66175473       0.00000000 NULL
P        0.53103382       0.61436844       8.96369632       0.00000000 NULL
P        3.73680313       3.63810290       4.11993771       0.00000000 NULL
P        5.88604357       1.62770246       4.71722470       0.00000000 NULL
P        2.68027426       2.62476887       8.36640933       0.00000000 NULL
P        3.73126436       6.87724021      11.25904172       0.00000000 NULL
P        0.52549505       5.88017380       1.82459231       0.00000000 NULL
P        5.76718760       7.71783928       0.94013511       0.00000000 NULL
P        2.56141829       5.03957472      12.14349893       0.00000000 NULL
P        3.85012033       0.78710339       7.48195213       0.00000000 NULL
P        0.64435102       3.46536795       5.60168191       0.00000000 NULL
