22
Lattice="7.310260000000003 -5.733537348122499e-32 -2.205745584986464e-16 5.521416892303007e-32 7.63359 2.1866990972136706e-48 -1.1438038111979885 8.97101042976381e-33 9.04498571153592" Properties=species:S:1:pos:R:3:initial_magmoms:R:1:castep_labels:S:1 n_minim_iter=1 pbc="T T T"
P        4.27178810       1.52150807       8.39480591       0.00000000 NULL
P        4.27178810       6.11208193       8.39480591       0.00000000 NULL
P        1.19922375       4.81861666       5.37422479       0.00000000 NULL
P        1.19922375       2.81497334       5.37422479       0.00000000 NULL
P        3.40112082       2.80028783       2.12299563       0.00000000 NULL
P        3.40112082       4.83330217       2.12299563       0.00000000 NULL
P        4.66325303       4.84195637       4.96150571       0.00000000 NULL
P        4.66325303       2.79163363       4.96150571       0.00000000 NULL
P        5.35009160       4.88435943       1.55872510       0.00000000 NULL
P        5.35009160       2.74923057       1.55872510       0.00000000 NULL
P        4.57867160       6.61037749       3.78733722       0.00000000 NULL
P        4.57867160       1.02321251       3.78733722       0.00000000 NULL
P        0.92186490       1.01438197       6.34584349       0.00000000 NULL
P        0.92186490       6.61920803       6.34584349       0.00000000 NULL
P        6.07439513       6.56546526       7.01766523       0.00000000 NULL
P        6.07439513       1.06812474       7.01766523       0.00000000 NULL
P        6.62118884       4.82070979       3.53749120       0.00000000 NULL
P        6.62118884       2.81288021       3.53749120       0.00000000 NULL
P        6.55098180       2.41429154       5.56691645       0.00000000 NULL
P        6.55098180       5.21929846       5.56691645       0.00000000 NULL
P        4.28778165       1.03019496       5.88953752       0.00000000 NULL
P        4.28778165       6.60339504       5.88953752       0.00000000 NULL
22
Lattice="7.348303915025473 -1.4930578088756744e-19 -0.0005743933404629361 -1.5590951839266129e-19 7.703789922435724 9.346564445515894e-18 -1.150467070036431 1.1098037982519436e-17 9.08768090439094" Properties=species:S:1:pos:R:3:initial_magmoms:R:1:castep_labels:S:1 n_minim_iter=2 pbc="T T T"
P        4.29333126       1.53541196       8.43391823       0.00000000 NULL
P        4.29333126       6.16837796       8.43391823       0.00000000 NULL
P        1.20539487       4.86303965       5.39930389       0.00000000 NULL
P        1.20539487       2.84075027       5.39930389       0.00000000 NULL
P        3.41838363       2.82576972       2.13280494       0.00000000 NULL
P        3.41838363       4.87802020       2.13280494       0.00000000 NULL
P        4.68689155       4.88626395       4.98444395       0.00000000 NULL
P        4.68689155       2.81752597       4.98444395       0.00000000 NULL
P        5.37806663       4.92940860       1.56547285       0.00000000 NULL
P        5.37806663       2.77438132       1.56547285       0.00000000 NULL
P        4.60216649       6.67111974       3.80453367       0.00000000 NULL
P        4.60216649       1.03267018       3.80453367       0.00000000 NULL
P        0.92630102       1.02373633       6.37585045       0.00000000 NULL
P        0.92630102       6.68005359       6.37585045       0.00000000 NULL
P        6.10545725       6.62579668       7.05063988       0.00000000 NULL
P        6.10545725       1.07799324       7.05063988       0.00000000 NULL
P        6.65549794       4.86532945       3.55330656       0.00000000 NULL
P        6.65549794       2.83846048       3.55330656       0.00000000 NULL
P        6.58469427       2.43663223       5.59273214       0.00000000 NULL
P        6.58469427       5.26715769       5.59273214       0.00000000 NULL
P        4.30927579       1.03966815       5.91726084       0.00000000 NULL
P        4.30927579       6.66412177       5.91726084       0.00000000 NULL
22
Lattice="7.751702789926915 -1.7157641965875645e-19 -0.005565181966906097 -1.787944211975305e-19 8.458433534293038 9.805262066634586e-18 -1.2197601981003763 1.2184138315349655e-17 9.536187768836665" Properties=species:S:1:pos:R:3:initial_magmoms:R:1:castep_labels:S:1 n_minim_iter=3 pbc="T T T"
P        4.52304619       1.68480852       8.84537768       0.00000000 NULL
P        4.52304619       6.77362501       8.84537768       0.00000000 NULL
P        1.27178503       5.34059194       5.66296988       0.00000000 NULL
P        1.27178503       3.11784159       5.66296988       0.00000000 NULL
P        3.60168563       3.09971586       2.23643211       0.00000000 NULL
P        3.60168563       5.35871768       2.23643211       0.00000000 NULL
P        4.93811707       5.36242323       5.22618130       0.00000000 NULL
P        4.93811707       3.09601031       5.22618130       0.00000000 NULL
P        5.67503028       5.41355480       1.63709251       0.00000000 NULL
P        5.67503028       3.04487873       1.63709251       0.00000000 NULL
P        4.85184251       7.32414790       3.98581735       0.00000000 NULL
P        4.85184251       1.13428563       3.98581735       0.00000000 NULL
P        0.97437341       1.12420894       6.69141640       0.00000000 NULL
P        0.97437341       7.33422460       6.69141640       0.00000000 NULL
P        6.43579909       7.27435256       7.39821060       0.00000000 NULL
P        6.43579909       1.18408097       7.39821060       0.00000000 NULL
P        7.01991292       5.34497644       3.72017757       0.00000000 NULL
P        7.01991292       3.11345709       3.72017757       0.00000000 NULL
P        6.94307364       2.67692324       5.86505992       0.00000000 NULL
P        6.94307364       5.78151029       5.86505992       0.00000000 NULL
P        4.53791658       1.14146283       6.20938535       0.00000000 NULL
P        4.53791658       7.31697071       6.20938535       0.00000000 NULL
22
Lattice="7.867345631568015 -1.81765476036538e-19 0.0041157038365908566 -1.7367501237978816e-19 8.75130736509435 9.921290861369493e-18 -1.225876156936205 1.2606180871155016e-17 9.648152624353578" Properties=species:S:1:pos:R:3:initial_magmoms:R:1:castep_labels:S:1 n_minim_iter=4 pbc="T T T"
P        4.60211072       1.74270763       8.95466414       0.00000000 NULL
P        4.60211072       7.00859974       8.95466414       0.00000000 NULL
P        1.30000935       5.52578469       5.73102951       0.00000000 NULL
P        1.30000935       3.22552267       5.73102951       0.00000000 NULL
P        3.65784613       3.20785693       2.26813042       0.00000000 NULL
P        3.65784613       5.54345044       2.26813042       0.00000000 NULL
P        5.01660460       5.54725650       5.29434353       0.00000000 NULL
P        5.01660460       3.20405087       5.29434353       0.00000000 NULL
P        5.76269435       5.59928654       1.66302190       0.00000000 NULL
P        5.76269435       3.15202083       1.66302190       0.00000000 NULL
P        4.92904477       7.57840228       4.03853799       0.00000000 NULL
P        4.92904477       1.17290508       4.03853799       0.00000000 NULL
P        0.99801505       1.16259536       6.77355888       0.00000000 NULL
P        0.99801505       7.58871200       6.77355888       0.00000000 NULL
P        6.54034506       7.52583846       7.49652452       0.00000000 NULL
P        6.54034506       1.22546891       7.49652452       0.00000000 NULL
P        7.12993578       5.52993331       3.77062435       0.00000000 NULL
P        7.12993578       3.22137406       3.77062435       0.00000000 NULL
P        7.05507647       2.77081892       5.94457435       0.00000000 NULL
P        7.05507647       5.98048845       5.94457435       0.00000000 NULL
P        4.61121353       1.18002710       6.29105130       0.00000000 NULL
P        4.61121353       7.57128027       6.29105130       0.00000000 NULL
22
Lattice="7.881462809346945 -1.8770457064886423e-19 0.029519123728616516 -1.4493460733792902e-19 8.896255110935346 9.905462607732448e-18 -1.1966533538894428 1.2815837085709423e-17 9.628994535348303" Properties=species:S:1:pos:R:3:initial_magmoms:R:1:castep_labels:S:1 n_minim_iter=5 pbc="T T T"
P        4.64030296       1.77123784       8.95328990       0.00000000 NULL
P        4.64030296       7.12501727       8.95328990       0.00000000 NULL
P        1.32269046       5.61749105       5.72533983       0.00000000 NULL
P        1.32269046       3.27876406       5.72533983       0.00000000 NULL
P        3.67239691       3.26356277       2.27684943       0.00000000 NULL
P        3.67239691       5.63269234       2.27684943       0.00000000 NULL
P        5.04120237       5.63900299       5.30177556       0.00000000 NULL
P        5.04120237       3.25725212       5.30177556       0.00000000 NULL
P        5.77875708       5.68860341       1.67861447       0.00000000 NULL
P        5.77875708       3.20765170       1.67861447       0.00000000 NULL
P        4.95078290       7.70509700       4.04818165       0.00000000 NULL
P        4.95078290       1.19115811       4.04818165       0.00000000 NULL
P        1.02221362       1.18121525       6.76729194       0.00000000 NULL
P        1.02221362       7.71503986       6.76729194       0.00000000 NULL
P        6.57532442       7.65022904       7.50761415       0.00000000 NULL
P        6.57532442       1.24602607       7.50761415       0.00000000 NULL
P        7.15513086       5.62025731       3.78516799       0.00000000 NULL
P        7.15513086       3.27599780       3.78516799       0.00000000 NULL
P        7.08834487       2.81803767       5.95911368       0.00000000 NULL
P        7.08834487       6.07821744       5.95911368       0.00000000 NULL
P        4.63787829       1.19804545       6.29776533       0.00000000 NULL
P        4.63787829       7.69820966       6.29776533       0.00000000 NULL
22
Lattice="7.860584077035137 -1.904132663955513e-19 0.06576346379741892 -9.99931787567035e-20 8.955238913997857 9.842500464369353e-18 -1.1485414246779515 1.2901768315446695e-17 9.562253346643649" Properties=species:S:1:pos:R:3:initial_magmoms:R:1:castep_labels:S:1 n_minim_iter=6 pbc="T T T"
P        4.67066343       1.78260772       8.91544307       0.00000000 NULL
P        4.67066343       7.17263120       8.91544307       0.00000000 NULL
P        1.34747631       5.65485390       5.69431222       0.00000000 NULL
P        1.34747631       3.30038501       5.69431222       0.00000000 NULL
P        3.67408489       3.28875343       2.27986486       0.00000000 NULL
P        3.67408489       5.66648549       2.27986486       0.00000000 NULL
P        5.05089503       5.67657789       5.29080167       0.00000000 NULL
P        5.05089503       3.27866102       5.29080167       0.00000000 NULL
P        5.77139484       5.72197078       1.69429044       0.00000000 NULL
P        5.77139484       3.23326813       1.69429044       0.00000000 NULL
P        4.95623729       7.75772328       4.04570910       0.00000000 NULL
P        4.95623729       1.19751563       4.04570910       0.00000000 NULL
P        1.05136158       1.18834865       6.73008216       0.00000000 NULL
P        1.05136158       7.76689027       6.73008216       0.00000000 NULL
P        6.59156104       7.70074782       7.49188818       0.00000000 NULL
P        6.59156104       1.25449109       7.49188818       0.00000000 NULL
P        7.15359376       5.65556409       3.79157173       0.00000000 NULL
P        7.15359376       3.29967482       3.79157173       0.00000000 NULL
P        7.09857944       2.83822078       5.95544543       0.00000000 NULL
P        7.09857944       6.11701814       5.95544543       0.00000000 NULL
P        4.65280685       1.20405167       6.28082481       0.00000000 NULL
P        4.65280685       7.75118724       6.28082481       0.00000000 NULL
22
Lattice="7.838035046477254 -1.939480936644662e-19 0.1543958111265477 1.156450506056478e-20 9.049911715828598 9.735463491162538e-18 -1.0353484626953722 1.3039616956171946e-17 9.44520500482359" Properties=species:S:1:pos:R:3:initial_magmoms:R:1:castep_labels:S:1 n_minim_iter=7 pbc="T T T"
P        4.76128661       1.80046726       8.86616259       0.00000000 NULL
P        4.76128661       7.24944446       8.86616259       0.00000000 NULL
P        1.41272569       5.71472208       5.64630492       0.00000000 NULL
P        1.41272569       3.33518964       5.64630492       0.00000000 NULL
P        3.69074967       3.33216732       2.29820107       0.00000000 NULL
P        3.69074967       5.71774439       2.29820107       0.00000000 NULL
P        5.09302409       5.73709368       5.28923955       0.00000000 NULL
P        5.09302409       3.31281803       5.28923955       0.00000000 NULL
P        5.77473193       5.77212230       1.74038102       0.00000000 NULL
P        5.77473193       3.27778941       1.74038102       0.00000000 NULL
P        4.98756488       7.84369404       4.05855688       0.00000000 NULL
P        4.98756488       1.20621768       4.05855688       0.00000000 NULL
P        1.12644206       1.19921365       6.67111777       0.00000000 NULL
P        1.12644206       7.85069806       6.67111777       0.00000000 NULL
P        6.65528211       7.78183960       7.48881159       0.00000000 NULL
P        6.65528211       1.26807212       7.48881159       0.00000000 NULL
P        7.17538959       5.71038043       3.82546500       0.00000000 NULL
P        7.17538959       3.33953129       3.82546500       0.00000000 NULL
P        7.14880338       2.87187355       5.97528607       0.00000000 NULL
P        7.14880338       6.17803817       5.97528607       0.00000000 NULL
P        4.70631081       1.21180613       6.26935365       0.00000000 NULL
P        4.70631081       7.83810558       6.26935365       0.00000000 NULL
22
Lattice="7.8504051333782865 -1.945900823837248e-19 0.2532660081140721 1.3713654560329546e-19 9.081644153314853 9.690921909261548e-18 -0.9149518466370293 1.3085177665564179e-17 9.388838228951347" Properties=species:S:1:pos:R:3:initial_magmoms:R:1:castep_labels:S:1 n_minim_iter=8 pbc="T T T"
P        4.88384989       1.80554034       8.88048507       0.00000000 NULL
P        4.88384989       7.27610381       8.88048507       0.00000000 NULL
P        1.49170598       5.73466299       5.63752495       0.00000000 NULL
P        1.49170598       3.34698116       5.63752495       0.00000000 NULL
P        3.72556535       3.35364850       2.33631456       0.00000000 NULL
P        3.72556535       5.72799565       2.33631456       0.00000000 NULL
P        5.16456539       5.75791383       5.32810388       0.00000000 NULL
P        5.16456539       3.32373032       5.32810388       0.00000000 NULL
P        5.80693183       5.78119306       1.80423951       0.00000000 NULL
P        5.80693183       3.30045109       1.80423951       0.00000000 NULL
P        5.04617812       7.87610295       4.10312714       0.00000000 NULL
P        5.04617812       1.20554120       4.10312714       0.00000000 NULL
P        1.21545714       1.20156100       6.65708155       0.00000000 NULL
P        1.21545714       7.88008315       6.65708155       0.00000000 NULL
P        6.75775587       7.80907634       7.54216010       0.00000000 NULL
P        6.75775587       1.27256782       7.54216010       0.00000000 NULL
P        7.23286926       5.72453347       3.89227730       0.00000000 NULL
P        7.23286926       3.35711068       3.89227730       0.00000000 NULL
P        7.23793839       2.88630913       6.04371436       0.00000000 NULL
P        7.23793839       6.19533503       6.04371436       0.00000000 NULL
P        4.78845835       1.21002242       6.30528733       0.00000000 NULL
P        4.78845835       7.87162173       6.30528733       0.00000000 NULL
22
Lattice="7.855137074027272 5.5492762391654045e-17 0.4967313567401799 6.684570454701492e-17 9.149750149244479 -7.024496863964097e-18 -0.6144525226966243 -1.0566341092323848e-17 9.285025451361841" Properties=species:S:1:pos:R:3:initial_magmoms:R:1:castep_labels:S:1 n_minim_iter=9 pbc="T T T"
P        5.16935045       1.81594009       8.94833334       0.00000000 NULL
P        5.16935045       7.33381006       8.94833334       0.00000000 NULL
P        1.68161880       5.77780847       5.63793081       0.00000000 NULL
P        1.68161880       3.37194168       5.63793081       0.00000000 NULL
P        3.79771996       3.40406894       2.43849444       0.00000000 NULL
P        3.79771996       5.74568121       2.43849444       0.00000000 NULL
P        5.32644561       5.80329479       5.44288617       0.00000000 NULL
P        5.32644561       3.34645536       5.44288617       0.00000000 NULL
P        5.86925780       5.79680624       1.96756366       0.00000000 NULL
P        5.86925780       3.35294391       1.96756366       0.00000000 NULL
P        5.17444486       7.94882186       4.22665046       0.00000000 NULL
P        5.17444486       1.20092829       4.22665046       0.00000000 NULL
P        1.43287365       1.20606005       6.64764284       0.00000000 NULL
P        1.43287365       7.94369010       6.64764284       0.00000000 NULL
P        6.98824320       7.86803108       7.69857368       0.00000000 NULL
P        6.98824320       1.28171907       7.69857368       0.00000000 NULL
P        7.34788830       5.75292010       4.07043568       0.00000000 NULL
P        7.34788830       3.39683005       4.07043568       0.00000000 NULL
P        7.43400753       2.92082903       6.23339027       0.00000000 NULL
P        7.43400753       6.22892111       6.23339027       0.00000000 NULL
P        4.97744545       1.20350224       6.41798399       0.00000000 NULL
P        4.97744545       7.94624791       6.41798399       0.00000000 NULL
22
Lattice="7.998704908727645 5.667829327489183e-17 0.6992291544881979 6.841340637982115e-17 9.260761262780994 -6.450200722342613e-18 -0.38636538889391725 -1.1927517422117947e-17 9.2304443445965" Properties=species:S:1:pos:R:3:initial_magmoms:R:1:castep_labels:S:1 n_minim_iter=10 pbc="T T T"
P        5.48432182       1.83496639       9.02898773       0.00000000 NULL
P        5.48432182       7.42579488       9.02898773       0.00000000 NULL
P        1.86844465       5.84930932       5.65998106       0.00000000 NULL
P        1.86844465       3.41145194       5.65998106       0.00000000 NULL
P        3.91495165       3.47884984       2.53229563       0.00000000 NULL
P        3.91495165       5.78191142       2.53229563       0.00000000 NULL
P        5.55202908       5.87605641       5.55452743       0.00000000 NULL
P        5.55202908       3.38470485       5.55452743       0.00000000 NULL
P        6.03452653       5.83301239       2.10743140       0.00000000 NULL
P        6.03452653       3.42774887       2.10743140       0.00000000 NULL
P        5.36945877       8.06719829       4.34114410       0.00000000 NULL
P        5.36945877       1.19356298       4.34114410       0.00000000 NULL
P        1.63750707       1.21485287       6.66589634       0.00000000 NULL
P        1.63750707       8.04590839       6.66589634       0.00000000 NULL
P        7.29300859       7.96639015       7.84901297       0.00000000 NULL
P        7.29300859       1.29437111       7.84901297       0.00000000 NULL
P        7.55940171       5.80581465       4.22441356       0.00000000 NULL
P        7.55940171       3.45494661       4.22441356       0.00000000 NULL
P        7.72264743       2.97848279       6.41326144       0.00000000 NULL
P        7.72264743       6.28227847       6.41326144       0.00000000 NULL
P        5.21537409       1.19613665       6.54224130       0.00000000 NULL
P        5.21537409       8.06462461       6.54224130       0.00000000 NULL
22
Lattice="7.856576230669261 5.896433628890774e-17 0.7180899976154923 7.238510206979156e-17 9.165042341048935 -1.71258438159365e-17 -0.3407906240787657 -2.297458928094626e-17 9.13471876992051" Properties=species:S:1:pos:R:3:initial_magmoms:R:1:castep_labels:S:1 n_minim_iter=11 pbc="T T T"
P        5.42199456       1.81551662       8.95174771       0.00000000 NULL
P        5.42199456       7.34952572       8.95174771       0.00000000 NULL
P        1.85901824       5.78992230       5.60854082       0.00000000 NULL
P        1.85901824       3.37512004       5.60854082       0.00000000 NULL
P        3.85443139       3.44833808       2.51966691       0.00000000 NULL
P        3.85443139       5.71670426       2.51966691       0.00000000 NULL
P        5.47529160       5.81580183       5.51530052       0.00000000 NULL
P        5.47529160       3.34924051       5.51530052       0.00000000 NULL
P        5.93545864       5.76731788       2.10500286       0.00000000 NULL
P        5.93545864       3.39772446       2.10500286       0.00000000 NULL
P        5.29050549       7.98756424       4.31432100       0.00000000 NULL
P        5.29050549       1.17747810       4.31432100       0.00000000 NULL
P        1.63682672       1.20156802       6.60430064       0.00000000 NULL
P        1.63682672       7.96347432       6.60430064       0.00000000 NULL
P        7.19259926       7.88468433       7.79130667       0.00000000 NULL
P        7.19259926       1.28035801       7.79130667       0.00000000 NULL
P        7.43672542       5.74345192       4.20341703       0.00000000 NULL
P        7.43672542       3.42159042       4.20341703       0.00000000 NULL
P        7.61017608       2.95193645       6.37386395       0.00000000 NULL
P        7.61017608       6.21310589       6.37386395       0.00000000 NULL
P        5.14771924       1.18082348       6.49576966       0.00000000 NULL
P        5.14771924       7.98421886       6.49576966       0.00000000 NULL
22
Lattice="7.90603260356275 5.811628420051819e-17 0.7226386010002728 7.211687751722383e-17 9.233424067914948 -2.761409566178813e-17 -0.34290085479296967 -3.350376561281023e-17 9.175109981592074" Properties=species:S:1:pos:R:3:initial_magmoms:R:1:castep_labels:S:1 n_minim_iter=12 pbc="T T T"
P        5.45525810       1.82894699       8.99110969       0.00000000 NULL
P        5.45525810       7.40447708       8.99110969       0.00000000 NULL
P        1.87198717       5.83341115       5.63400013       0.00000000 NULL
P        1.87198717       3.40001292       5.63400013       0.00000000 NULL
P        3.87753408       3.47629532       2.53179513       0.00000000 NULL
P        3.87753408       5.75712875       2.53179513       0.00000000 NULL
P        5.50965704       5.85904809       5.54046257       0.00000000 NULL
P        5.50965704       3.37437597       5.54046257       0.00000000 NULL
P        5.97467645       5.80797478       2.11497646       0.00000000 NULL
P        5.97467645       3.42544928       2.11497646       0.00000000 NULL
P        5.32383452       8.04925161       4.33385119       0.00000000 NULL
P        5.32383452       1.18417246       4.33385119       0.00000000 NULL
P        1.64829342       1.21002897       6.63474798       0.00000000 NULL
P        1.64829342       8.02339509       6.63474798       0.00000000 NULL
P        7.23771944       7.94411082       7.82654217       0.00000000 NULL
P        7.23771944       1.28931325       7.82654217       0.00000000 NULL
P        7.48209276       5.78534924       4.22159719       0.00000000 NULL
P        7.48209276       3.44807483       4.22159719       0.00000000 NULL
P        7.65829437       2.97627314       6.40428295       0.00000000 NULL
P        7.65829437       6.25715093       6.40428295       0.00000000 NULL
P        5.17954326       1.18780832       6.52761168       0.00000000 NULL
P        5.17954326       8.04561575       6.52761168       0.00000000 NULL
22
Lattice="7.903890511302413 5.807746733389912e-17 0.7279908006725119 7.208979154776873e-17 9.23805065809317 -2.860717464388575e-17 -0.3359434137646058 -3.457699633009194e-17 9.16966275276202" Properties=species:S:1:pos:R:3:initial_magmoms:R:1:castep_labels:S:1 n_minim_iter=13 pbc="T T T"
P        5.45941643       1.82966628       8.98868056       0.00000000 NULL
P        5.45941643       7.40838438       8.98868056       0.00000000 NULL
P        1.87648088       5.83676043       5.63247161       0.00000000 NULL
P        1.87648088       3.40129023       5.63247161       0.00000000 NULL
P        3.87742101       3.48056759       2.53348635       0.00000000 NULL
P        3.87742101       5.75748307       2.53348635       0.00000000 NULL
P        5.51201246       5.86195838       5.54110801       0.00000000 NULL
P        5.51201246       3.37609228       5.54110801       0.00000000 NULL
P        5.97565451       5.80825748       2.11782490       0.00000000 NULL
P        5.97565451       3.42979318       2.11782490       0.00000000 NULL
P        5.32537273       8.05540087       4.33511309       0.00000000 NULL
P        5.32537273       1.18264978       4.33511309       0.00000000 NULL
P        1.65360636       1.21018218       6.63299245       0.00000000 NULL
P        1.65360636       8.02786848       6.63299245       0.00000000 NULL
P        7.24080698       7.94855129       7.82674566       0.00000000 NULL
P        7.24080698       1.28949937       7.82674566       0.00000000 NULL
P        7.48109709       5.78713256       4.22317965       0.00000000 NULL
P        7.48109709       3.45091810       4.22317965       0.00000000 NULL
P        7.66068986       2.98001455       6.40698176       0.00000000 NULL
P        7.66068986       6.25803611       6.40698176       0.00000000 NULL
P        5.18223430       1.18664074       6.52967285       0.00000000 NULL
P        5.18223430       8.05140992       6.52967285       0.00000000 NULL
22
Lattice="7.888458735249488 6.383384924489997e-17 0.7850024472738983 7.993956099839144e-17 9.303229591825811 -4.881045360575496e-17 -0.26298835427786244 -5.590660428294732e-17 9.111430523864003" Properties=species:S:1:pos:R:3:initial_magmoms:R:1:castep_labels:S:1 n_minim_iter=14 pbc="T T T"
P        5.50686756       1.84014974       8.96120307       0.00000000 NULL
P        5.50686756       7.46307985       8.96120307       0.00000000 NULL
P        1.92669644       5.88307427       5.61654510       0.00000000 NULL
P        1.92669644       3.42015532       5.61654510       0.00000000 NULL
P        3.87895981       3.53453992       2.55167742       0.00000000 NULL
P        3.87895981       5.76868967       2.55167742       0.00000000 NULL
P        5.54186532       5.90266608       5.54770099       0.00000000 NULL
P        5.54186532       3.40056351       5.54770099       0.00000000 NULL
P        5.99301597       5.81843210       2.14803378       0.00000000 NULL
P        5.99301597       3.48479749       2.14803378       0.00000000 NULL
P        5.34653618       8.13744056       4.34842393       0.00000000 NULL
P        5.34653618       1.16578904       4.34842393       0.00000000 NULL
P        1.71228235       1.21335524       6.61504980       0.00000000 NULL
P        1.71228235       8.08987436       6.61504980       0.00000000 NULL
P        7.27970572       8.01006449       7.82776843       0.00000000 NULL
P        7.27970572       1.29316510       7.82776843       0.00000000 NULL
P        7.47528507       5.81491179       4.23834294       0.00000000 NULL
P        7.47528507       3.48831780       4.23834294       0.00000000 NULL
P        7.69290076       3.02761596       6.43640107       0.00000000 NULL
P        7.69290076       6.27561363       6.43640107       0.00000000 NULL
P        5.21500117       1.17421704       6.55339763       0.00000000 NULL
P        5.21500117       8.12901255       6.55339763       0.00000000 NULL
22
Lattice="7.840442553873588 6.099308767768767e-17 0.7555496521226045 7.458660298785321e-17 9.519840680236847 -5.79931457794535e-17 -0.29191742383917935 -6.641022103069936e-17 9.000092640299219" Properties=species:S:1:pos:R:3:initial_magmoms:R:1:castep_labels:S:1 n_minim_iter=15 pbc="T T T"
P        5.42059823       1.87495308       8.80500635       0.00000000 NULL
P        5.42059823       7.64488760       8.80500635       0.00000000 NULL
P        1.92031229       6.03431891       5.55195884       0.00000000 NULL
P        1.92031229       3.48552177       5.55195884       0.00000000 NULL
P        3.83389039       3.66630334       2.51781476       0.00000000 NULL
P        3.83389039       5.85353734       2.51781476       0.00000000 NULL
P        5.49434782       6.02978152       5.46182012       0.00000000 NULL
P        5.49434782       3.49005916       5.46182012       0.00000000 NULL
P        5.98537090       5.89461541       2.10113813       0.00000000 NULL
P        5.98537090       3.62522527       2.10113813       0.00000000 NULL
P        5.30541006       8.38514566       4.28104911       0.00000000 NULL
P        5.30541006       1.13469502       4.28104911       0.00000000 NULL
P        1.70424118       1.22996074       6.54847148       0.00000000 NULL
P        1.70424118       8.28987994       6.54847148       0.00000000 NULL
P        7.21158039       8.20750237       7.68924746       0.00000000 NULL
P        7.21158039       1.31233831       7.68924746       0.00000000 NULL
P        7.37783479       5.92490935       4.13282338       0.00000000 NULL
P        7.37783479       3.59493133       4.13282338       0.00000000 NULL
P        7.62620383       3.15452450       6.35683022       0.00000000 NULL
P        7.62620383       6.36531618       6.35683022       0.00000000 NULL
P        5.15476121       1.15840233       6.50595664       0.00000000 NULL
P        5.15476121       8.36143835       6.50595664       0.00000000 NULL
22
Lattice="7.555313592160514 6.50695254660312e-17 0.8012776500324732 7.997583748527511e-17 9.261409373863955 -6.684006412516201e-17 -0.19072530744355987 -7.404455382988376e-17 8.978031764682138" Properties=species:S:1:pos:R:3:initial_magmoms:R:1:castep_labels:S:1 n_minim_iter=16 pbc="T T T"
P        5.30013914       1.81701771       8.80715131       0.00000000 NULL
P        5.30013914       7.44439166       8.80715131       0.00000000 NULL
P        1.91137562       5.87804111       5.55528851       0.00000000 NULL
P        1.91137562       3.38336826       5.55528851       0.00000000 NULL
P        3.71632174       3.57579647       2.53876818       0.00000000 NULL
P        3.71632174       5.68561290       2.53876818       0.00000000 NULL
P        5.34524285       5.85610094       5.48119698       0.00000000 NULL
P        5.34524285       3.40530843       5.48119698       0.00000000 NULL
P        5.78948883       5.72040342       2.13080194       0.00000000 NULL
P        5.78948883       3.54100596       2.13080194       0.00000000 NULL
P        5.15281356       8.17630884       4.30501921       0.00000000 NULL
P        5.15281356       1.08510054       4.30501921       0.00000000 NULL
P        1.71334413       1.19323529       6.54826502       0.00000000 NULL
P        1.71334413       8.06817408       6.54826502       0.00000000 NULL
P        7.02049217       7.98412436       7.70534344       0.00000000 NULL
P        7.02049217       1.27728501       7.70534344       0.00000000 NULL
P        7.13056725       5.75388604       4.15754194       0.00000000 NULL
P        7.13056725       3.50752333       4.15754194       0.00000000 NULL
P        7.40267833       3.08345322       6.39837884       0.00000000 NULL
P        7.40267833       6.17795616       6.39837884       0.00000000 NULL
P        5.02427612       1.11389935       6.53420887       0.00000000 NULL
P        5.02427612       8.14751002       6.53420887       0.00000000 NULL
22
Lattice="7.770107672199668 6.455014233648382e-17 0.7941606645200379 7.593024278317607e-17 9.526834107601557 -3.395631357591851e-17 -0.2331390272894662 -4.303060434105583e-17 9.09002742416079" Properties=species:S:1:pos:R:3:initial_magmoms:R:1:castep_labels:S:1 n_minim_iter=17 pbc="T T T"
P        5.41507855       1.86897165       8.90400349       0.00000000 NULL
P        5.41507855       7.65786245       8.90400349       0.00000000 NULL
P        1.94624910       6.04672933       5.62059455       0.00000000 NULL
P        1.94624910       3.48010478       5.62059455       0.00000000 NULL
P        3.81103191       3.67642609       2.56221353       0.00000000 NULL
P        3.81103191       5.85040801       2.56221353       0.00000000 NULL
P        5.47604177       6.02239131       5.53726712       0.00000000 NULL
P        5.47604177       3.50444280       5.53726712       0.00000000 NULL
P        5.95050072       5.88538194       2.14389186       0.00000000 NULL
P        5.95050072       3.64145217       2.14389186       0.00000000 NULL
P        5.28384335       8.41156939       4.34660003       0.00000000 NULL
P        5.28384335       1.11526472       4.34660003       0.00000000 NULL
P        1.73760226       1.22683595       6.62660758       0.00000000 NULL
P        1.73760226       8.29999816       6.62660758       0.00000000 NULL
P        7.19241454       8.21339571       7.78414956       0.00000000 NULL
P        7.19241454       1.31343840       7.78414956       0.00000000 NULL
P        7.31877638       5.91902478       4.19145746       0.00000000 NULL
P        7.31877638       3.60780933       4.19145746       0.00000000 NULL
P        7.58877055       3.17351798       6.46216666       0.00000000 NULL
P        7.58877055       6.35331613       6.46216666       0.00000000 NULL
P        5.14133839       1.14508789       6.60517155       0.00000000 NULL
P        5.14133839       8.38174622       6.60517155       0.00000000 NULL
22
Lattice="7.763464135135764 6.460470400369032e-17 0.7900579265516035 7.603023525882174e-17 9.519208464939954 -3.429903396481633e-17 -0.237175860902655 -4.3424850456294454e-17 9.053284426687519" Properties=species:S:1:pos:R:3:initial_magmoms:R:1:castep_labels:S:1 n_minim_iter=18 pbc="T T T"
P        5.40573334       1.86676520       8.86618644       0.00000000 NULL
P        5.40573334       7.65244326       8.86618644       0.00000000 NULL
P        1.94296679       6.04269866       5.59808190       0.00000000 NULL
P        1.94296679       3.47650981       5.59808190       0.00000000 NULL
P        3.80653486       3.67406183       2.55177232       0.00000000 NULL
P        3.80653486       5.84514663       2.55177232       0.00000000 NULL
P        5.46910969       6.01621116       5.51410167       0.00000000 NULL
P        5.46910969       3.50299731       5.51410167       0.00000000 NULL
P        5.94573690       5.87974132       2.13450705       0.00000000 NULL
P        5.94573690       3.63946714       2.13450705       0.00000000 NULL
P        5.27785928       8.40662249       4.32889901       0.00000000 NULL
P        5.27785928       1.11258598       4.32889901       0.00000000 NULL
P        1.73403264       1.22551362       6.60005998       0.00000000 NULL
P        1.73403264       8.29369484       6.60005998       0.00000000 NULL
P        7.18310297       8.20667008       7.75060240       0.00000000 NULL
P        7.18310297       1.31253839       7.75060240       0.00000000 NULL
P        7.30962143       5.91349824       4.17271020       0.00000000 NULL
P        7.30962143       3.60571023       4.17271020       0.00000000 NULL
P        7.57905650       3.17250659       6.43593624       0.00000000 NULL
P        7.57905650       6.34670188       6.43593624       0.00000000 NULL
P        5.13372424       1.14298941       6.57887542       0.00000000 NULL
P        5.13372424       8.37621905       6.57887542       0.00000000 NULL
22
Lattice="7.766377219282142 6.450586810378432e-17 0.7869831233050097 7.584666418296284e-17 9.52913301283665 -3.426349979729687e-17 -0.24143611268305307 -4.3478190079533294e-17 9.031080065373114" Properties=species:S:1:pos:R:3:initial_magmoms:R:1:castep_labels:S:1 n_minim_iter=19 pbc="T T T"
P        5.40280404       1.86780122       8.84217072       0.00000000 NULL
P        5.40280404       7.66133179       8.84217072       0.00000000 NULL
P        1.94243722       6.05008933       5.58463930       0.00000000 NULL
P        1.94243722       3.47904368       5.58463930       0.00000000 NULL
P        3.80662202       3.67853656       2.54542235       0.00000000 NULL
P        3.80662202       5.85059645       2.54542235       0.00000000 NULL
P        5.46886913       6.02068228       5.49959154       0.00000000 NULL
P        5.46886913       3.50845073       5.49959154       0.00000000 NULL
P        5.94862264       5.88473862       2.12826651       0.00000000 NULL
P        5.94862264       3.64439439       2.12826651       0.00000000 NULL
P        5.27846055       8.41763134       4.31795898       0.00000000 NULL
P        5.27846055       1.11150167       4.31795898       0.00000000 NULL
P        1.73297969       1.22634018       6.58420526       0.00000000 NULL
P        1.73297969       8.30279283       6.58420526       0.00000000 NULL
P        7.18281521       8.21506122       7.72893434       0.00000000 NULL
P        7.18281521       1.31407179       7.72893434       0.00000000 NULL
P        7.30915922       5.91868238       4.16006558       0.00000000 NULL
P        7.30915922       3.61045063       4.16006558       0.00000000 NULL
P        7.57858504       3.17784930       6.42016121       0.00000000 NULL
P        7.57858504       6.35128371       6.42016121       0.00000000 NULL
P        5.13227225       1.14262969       6.56332791       0.00000000 NULL
P        5.13227225       8.38650332       6.56332791       0.00000000 NULL
