9
Lattice="5.82588 -1.0838749575193268e-15 1.0976787613467196e-15 0.3795636142425677 5.813502321074888 -4.1066353786454076e-16 0.37956361424256746 0.3555900415129431 5.802617078484494" Properties=species:S:1:pos:R:3:initial_magmoms:R:1:castep_labels:S:1 n_minim_iter=1 pbc="T T T"
P        5.29100624       4.19944460       2.01562782       0.00000000 NULL
P        2.60861373       5.13195505       4.06829316       0.00000000 NULL
P        4.53523834       2.31806205       4.87350377       0.00000000 NULL
P        1.86410026       1.75891033       0.11018299       0.00000000 NULL
P        0.33854891       1.84596531       1.74887745       0.00000000 NULL
P        1.87662188       0.21674507       1.73553666       0.00000000 NULL
P        4.34019317       1.97303252       2.87125621       0.00000000 NULL
P        3.26298695       4.13639355       1.79371427       0.00000000 NULL
P        2.25160980       3.12292665       4.01893379       0.00000000 NULL
9
Lattice="5.829482624392572 -0.00023952796787141521 -0.00022529879525876463 0.37955931081339095 5.817112896879638 -0.0002252987952604814 0.37955931081339056 0.35558600989214967 5.806234674500501" Properties=species:S:1:pos:R:3:initial_magmoms:R:1:castep_labels:S:1 n_minim_iter=2 pbc="T T T"
P        5.29421267       4.20178421       2.01654251       0.00000000 NULL
P        2.60987647       5.13508586       4.07057244       0.00000000 NULL
P        4.53778188       2.31916141       4.87648930       0.00000000 NULL
P        1.86521998       1.75990479       0.11015901       0.00000000 NULL
P        0.33865868       1.84708024       1.74987152       0.00000000 NULL
P        1.87768718       0.21678552       1.73658870       0.00000000 NULL
P        4.34260332       1.97389581       2.87270801       0.00000000 NULL
P        3.26464267       4.13870073       1.79448714       0.00000000 NULL
P        2.25262828       3.12451939       4.02118938       0.00000000 NULL
9
Lattice="5.944764393109215 -0.007673196560267066 -0.0072173698804028266 0.37965219209044554 5.932634050787687 -0.007217369880403768 0.3796521920904459 0.35567302470580475 5.921967204442299" Properties=species:S:1:pos:R:3:initial_magmoms:R:1:castep_labels:S:1 n_minim_iter=3 pbc="T T T"
P        5.39720090       4.27687077       2.04614428       0.00000000 NULL
P        2.65065286       5.23563108       4.14370779       0.00000000 NULL
P        4.61941873       2.35469455       4.97237285       0.00000000 NULL
P        1.90117543       1.79177388       0.10958135       0.00000000 NULL
P        0.34237104       1.88286987       1.78171627       0.00000000 NULL
P        1.91183111       0.21827653       1.77036349       0.00000000 NULL
P        4.41983844       2.00173647       2.91927760       0.00000000 NULL
P        3.31775757       4.21263242       1.81942718       0.00000000 NULL
P        2.28544176       3.17560499       4.09345715       0.00000000 NULL
