2
Lattice="3.4411199999999997 -3.7867172699744727e-16 -8.891246839099789e-17 1.323280953728604 3.4540759649867447 3.319015200301375e-16 0.5097242168261463 0.8763544919627443 3.7399657793618513" Properties=species:S:1:pos:R:3:initial_magmoms:R:1:castep_labels:S:1 n_minim_iter=1 pbc="T T T"
P        4.03278233       2.60819200       3.59106390       0.00000000 NULL
P        2.30730434       3.58295635       3.07516966       0.00000000 NULL
2
Lattice="3.441900136037139 3.1156910615213054e-05 6.866872758810294e-05 1.323612228864421 3.4541259106991484 -0.00024423481987780916 0.5099223434303967 0.8760756973063761 3.7393213017931948" Properties=species:S:1:pos:R:3:initial_magmoms:R:1:castep_labels:S:1 n_minim_iter=2 pbc="T T T"
P        4.03378924       2.60781995       3.59053955       0.00000000 NULL
P        2.30792387       3.58293153       3.07429095       0.00000000 NULL
2
Lattice="3.5224369269320306 0.00325382571390623 0.007198407980984113 1.357817413316634 3.458931924801707 -0.02509797874333361 0.530421696481128 0.8475784745142858 3.673583648114188" Properties=species:S:1:pos:R:3:initial_magmoms:R:1:castep_labels:S:1 n_minim_iter=3 pbc="T T T"
P        4.13780805       2.56943340       3.53719581       0.00000000 NULL
P        2.37190000       3.58039055       2.98473245       0.00000000 NULL
2
Lattice="3.5208107156352595 0.006442015523163404 0.018747667945691368 1.3603922480670085 3.414404081911696 -0.03835449163223946 0.5435450116302339 0.817279645503834 3.6127331694614906" Properties=species:S:1:pos:R:3:initial_magmoms:R:1:castep_labels:S:1 n_minim_iter=4 pbc="T T T"
P        4.15133486       2.50891894       3.49529262       0.00000000 NULL
P        2.38348662       3.53061302       2.91268510       0.00000000 NULL
2
Lattice="3.500732294803393 0.02414435570651058 0.05816185894627834 1.3704400917584691 3.280746917991275 -0.06185059560712272 0.5879162609815287 0.7424116682723797 3.4904465648915983" Properties=species:S:1:pos:R:3:initial_magmoms:R:1:castep_labels:S:1 n_minim_iter=5 pbc="T T T"
P        4.18514785       2.35579738       3.43464993       0.00000000 NULL
P        2.42088390       3.38998051       2.76577050       0.00000000 NULL
2
Lattice="3.495204028722657 0.06291318391584559 0.1172736068895119 1.4072289943532006 3.1638496732350445 -0.055012683065721095 0.6612160180713502 0.6975041890761094 3.5114795800666863" Properties=species:S:1:pos:R:3:initial_magmoms:R:1:castep_labels:S:1 n_minim_iter=6 pbc="T T T"
P        4.27368373       2.26289755       3.55223400       0.00000000 NULL
P        2.50642698       3.28738505       2.75767937       0.00000000 NULL
2
Lattice="3.467713455281831 0.08501083028897431 0.15768521655316003 1.4188383532185929 3.147204891762022 -0.016329509549978513 0.7066927227124675 0.7194568418864675 3.585592525250745" Properties=species:S:1:pos:R:3:initial_magmoms:R:1:castep_labels:S:1 n_minim_iter=7 pbc="T T T"
P        4.30360897       2.29446394       3.71064708       0.00000000 NULL
P        2.54389562       3.29613163       2.82616993       0.00000000 NULL
2
Lattice="3.4257817475668277 0.120438685671017 0.18021007113432114 1.4382747790304113 3.1107105578349925 0.012379000671298152 0.7339849818165078 0.7336947344813715 3.639630476393156" Properties=species:S:1:pos:R:3:initial_magmoms:R:1:castep_labels:S:1 n_minim_iter=8 pbc="T T T"
P        4.30342162       2.31999642       3.83050062       0.00000000 NULL
P        2.57420235       3.28472970       2.86505524       0.00000000 NULL
2
Lattice="3.291335865750925 0.23622372066077493 0.2905044932978207 1.5027946538819246 2.9851832798050983 0.15321391866011047 0.8634299817721035 0.8142681272946557 3.9332022352827147" Properties=species:S:1:pos:R:3:initial_magmoms:R:1:castep_labels:S:1 n_minim_iter=9 pbc="T T T"
P        4.35443074       2.44331014       4.44813938       0.00000000 NULL
P        2.69746561       3.25988826       3.07668203       0.00000000 NULL
