8
Lattice="2.3786699999999996 -6.282587242198739e-16 -6.759226689501401e-16 -0.6330365559750678 8.533973387303197 -3.0451645634728697e-16 -0.633036555975068 -0.8931674090405127 8.487105145727083" Properties=species:S:1:pos:R:3:initial_magmoms:R:1:castep_labels:S:1 n_minim_iter=1 pbc="T T T"
P        1.61451735       1.93679534       0.47565472       0.00000000 NULL
P       -0.50192046       7.37046893       6.51116448       0.00000000 NULL
P       -0.10065880       2.84387854       6.88497648       0.00000000 NULL
P        1.21325569       1.09128242       4.93826201       0.00000000 NULL
P        1.81393142       3.88368137       2.34968307       0.00000000 NULL
P       -0.70133453       5.71049416       4.37883448       0.00000000 NULL
P        1.49264690       5.99605497       0.35667569       0.00000000 NULL
P       -0.38005001       7.91363748       2.48665051       0.00000000 NULL
8
Lattice="2.376988080688154 -0.0006398366851420728 -0.0007107052892512818 -0.6348844931982295 8.516721851360517 -0.0028238753991600696 -0.6348844931982297 -0.894170226530422 8.469652807152169" Properties=species:S:1:pos:R:3:initial_magmoms:R:1:castep_labels:S:1 n_minim_iter=2 pbc="T T T"
P        1.61272294       1.93244097       0.47350154       0.00000000 NULL
P       -0.50550385       7.35326036       6.49473336       0.00000000 NULL
P       -0.10340407       2.83554485       6.86942934       0.00000000 NULL
P        1.21062316       1.08697778       4.92719019       0.00000000 NULL
P        1.81083677       3.87448301       2.34269888       0.00000000 NULL
P       -0.70361767       5.69758310       4.36772637       0.00000000 NULL
P        1.48992631       5.98324375       0.35353549       0.00000000 NULL
P       -0.38270721       7.89652542       2.47873310       0.00000000 NULL
8
Lattice="2.223143323159663 -0.05606964455292255 -0.06227994404752627 -0.7928076812597595 6.959329179975884 -0.22433732523692498 -0.7928076812597633 -0.9514700961941928 6.897629631025902" Properties=species:S:1:pos:R:3:initial_magmoms:R:1:castep_labels:S:1 n_minim_iter=3 pbc="T T T"
P        1.45125172       1.54100957       0.28819899       0.00000000 NULL
P       -0.81372375       5.82645560       5.04830298       0.00000000 NULL
P       -0.34056326       2.11207679       5.48395190       0.00000000 NULL
P        0.97809122       0.71900557       3.93658348       0.00000000 NULL
P        1.53619932       3.05554066       1.73278379       0.00000000 NULL
P       -0.89867136       4.54831554       3.39089910       0.00000000 NULL
P        1.24923110       4.82977817       0.09428514       0.00000000 NULL
P       -0.61170314       6.36350768       1.79789124       0.00000000 NULL
8
Lattice="2.511271380423685 -0.07787483335108648 -0.08650028553753787 -0.9477179857403576 7.414672555020317 0.04442371582694585 -0.9477179857403605 -0.7318414112886914 7.378600864216901" Properties=species:S:1:pos:R:3:initial_magmoms:R:1:castep_labels:S:1 n_minim_iter=4 pbc="T T T"
P        1.62307442       1.63770709       0.35910478       0.00000000 NULL
P       -1.00723901       6.41922648       5.67022744       0.00000000 NULL
P       -0.44749426       2.47936803       5.97939625       0.00000000 NULL
P        1.06332967       0.91788982       4.24496801       0.00000000 NULL
P        1.69341975       3.31547122       1.97288758       0.00000000 NULL
P       -1.07758434       4.98990165       3.83277868       0.00000000 NULL
P        1.37470766       5.14260092       0.28394911       0.00000000 NULL
P       -0.75887225       6.86079230       2.19244815       0.00000000 NULL
8
Lattice="2.472195166589505 -0.09491729229131202 -0.10543037503057315 -0.998461981008279 7.274492771554434 0.16485229281674585 -0.9984619810082823 -0.5974029782877469 7.251795022156764" Properties=species:S:1:pos:R:3:initial_magmoms:R:1:castep_labels:S:1 n_minim_iter=5 pbc="T T T"
P        1.57718305       1.60024339       0.36495763       0.00000000 NULL
P       -1.10191185       6.38670100       5.68156547       0.00000000 NULL
P       -0.52044685       2.52451989       5.92211681       0.00000000 NULL
P        0.99571805       0.95679648       4.18075164       0.00000000 NULL
P        1.61489599       3.26866967       1.97511464       0.00000000 NULL
P       -1.13962478       4.96000475       3.85378276       0.00000000 NULL
P        1.30628333       5.03464072       0.35089625       0.00000000 NULL
P       -0.83101213       6.76012988       2.26750138       0.00000000 NULL
8
Lattice="2.488154676659275 -0.11178863320833073 -0.12417039338982784 -1.063238737634282 7.2598570650916905 0.2584155118297553 -1.0632387376342856 -0.5028218286959535 7.247032040146012" Properties=species:S:1:pos:R:3:initial_magmoms:R:1:castep_labels:S:1 n_minim_iter=6 pbc="T T T"
P        1.56836159       1.58937784       0.37180646       0.00000000 NULL
P       -1.20668438       6.44182669       5.76171477       0.00000000 NULL
P       -0.59514919       2.59105085       5.95226746       0.00000000 NULL
P        0.95682640       0.99684866       4.18149071       0.00000000 NULL
P        1.57846894       3.27097078       1.99889266       0.00000000 NULL
P       -1.21679174       4.99967225       3.91906590       0.00000000 NULL
P        1.27283538       5.01410948       0.40372905       0.00000000 NULL
P       -0.91115818       6.76851254       2.35245060       0.00000000 NULL
8
Lattice="2.5272156822654606 -0.1573702725247498 -0.17480067594033674 -1.2371676732738732 7.220242861473277 0.4610475146163366 -1.237167673273877 -0.29715664209514564 7.2288429032209915" Properties=species:S:1:pos:R:3:initial_magmoms:R:1:castep_labels:S:1 n_minim_iter=7 pbc="T T T"
P        1.53968849       1.55819017       0.37803814       0.00000000 NULL
P       -1.48680815       6.55283448       5.92589153       0.00000000 NULL
P       -0.79781921       2.73107705       6.00889964       0.00000000 NULL
P        0.85069955       1.07565202       4.17011898       0.00000000 NULL
P        1.47601671       3.26220702       2.03693663       0.00000000 NULL
P       -1.42313637       5.08138934       4.05761242       0.00000000 NULL
P        1.18008518       4.95660947       0.51187373       0.00000000 NULL
P       -1.12720484       6.77541317       2.53212896       0.00000000 NULL
