8
Lattice="3.1768700000000005 0.0 0.0 0.0 6.948540000000002 0.0 0.0 0.0 8.14233" Properties=species:S:1:pos:R:3:initial_magmoms:R:1:castep_labels:S:1 n_minim_iter=1 pbc="T T T"
P        2.52164120       5.75489270       0.86959270       0.00000000 NULL
P        0.65522880       2.28062270       3.20157230       0.00000000 NULL
P        0.93320620       4.66791730       7.27273730       0.00000000 NULL
P        2.24366380       1.19364730       4.94075770       0.00000000 NULL
P        2.26903556       0.81412847       1.23373398       0.00000000 NULL
P        0.90783444       4.28839847       2.83743102       0.00000000 NULL
P        0.68060056       2.66014153       6.90859602       0.00000000 NULL
P        2.49626944       6.13441153       5.30489898       0.00000000 NULL
8
Lattice="3.1761079634734255 0.0 0.0 0.0 6.943733495838606 0.0 0.0 0.0 8.135493705113548" Properties=species:S:1:pos:R:3:initial_magmoms:R:1:castep_labels:S:1 n_minim_iter=2 pbc="T T T"
P        2.52102897       5.75076337       0.86885394       0.00000000 NULL
P        0.65507899       2.27889662       3.19889292       0.00000000 NULL
P        0.93297499       4.66483687       7.26663977       0.00000000 NULL
P        2.24313297       1.19297013       4.93660079       0.00000000 NULL
P        2.26850394       0.81361778       1.23269098       0.00000000 NULL
P        0.90760402       4.28548452       2.83505587       0.00000000 NULL
P        0.68044996       2.65824897       6.90280273       0.00000000 NULL
P        2.49565800       6.13011572       5.30043783       0.00000000 NULL
8
Lattice="3.14620225440734 0.0 0.0 0.0 6.75567657222797 0.0 0.0 0.0 7.863785525452179" Properties=species:S:1:pos:R:3:initial_magmoms:R:1:castep_labels:S:1 n_minim_iter=3 pbc="T T T"
P        2.49700422       5.58907171       0.83948602       0.00000000 NULL
P        0.64919803       2.21123343       3.09240675       0.00000000 NULL
P        0.92390310       4.54444315       7.02429951       0.00000000 NULL
P        2.22229916       1.16660486       4.77137878       0.00000000 NULL
P        2.24764600       0.79374502       1.19123933       0.00000000 NULL
P        0.89855625       4.17158331       2.74065343       0.00000000 NULL
P        0.67454487       2.58409326       6.67254619       0.00000000 NULL
P        2.47165738       5.96193155       5.12313209       0.00000000 NULL
8
Lattice="3.1565377190193997 0.0 0.0 0.0 6.792775564756582 0.0 0.0 0.0 7.7052705777457335" Properties=species:S:1:pos:R:3:initial_magmoms:R:1:castep_labels:S:1 n_minim_iter=4 pbc="T T T"
P        2.50535288       5.61220016       0.82184414       0.00000000 NULL
P        0.65118484       2.21581238       3.03079115       0.00000000 NULL
P        0.92708402       4.57696319       6.88342644       0.00000000 NULL
P        2.22945370       1.18057540       4.67447943       0.00000000 NULL
P        2.25510252       0.80300899       1.16698815       0.00000000 NULL
P        0.90143520       4.19939677       2.68564714       0.00000000 NULL
P        0.67683366       2.59337879       6.53828243       0.00000000 NULL
P        2.47970406       5.98976657       5.01962344       0.00000000 NULL
8
Lattice="3.17508576799652 0.0 0.0 0.0 6.771854785083095 0.0 0.0 0.0 7.452510695691987" Properties=species:S:1:pos:R:3:initial_magmoms:R:1:castep_labels:S:1 n_minim_iter=5 pbc="T T T"
P        2.52022622       5.58288848       0.79413023       0.00000000 NULL
P        0.65485955       2.19696109       2.93212512       0.00000000 NULL
P        0.93268333       4.57489370       6.65838047       0.00000000 NULL
P        2.24240244       1.18896631       4.52038558       0.00000000 NULL
P        2.26861126       0.80776576       1.12796273       0.00000000 NULL
P        0.90647451       4.19369316       2.59829262       0.00000000 NULL
P        0.68106838       2.57816163       6.32454797       0.00000000 NULL
P        2.49401739       5.96408902       4.85421808       0.00000000 NULL
8
Lattice="3.2543393226750634 0.0 0.0 0.0 6.759733560243772 0.0 0.0 0.0 7.131976342038342" Properties=species:S:1:pos:R:3:initial_magmoms:R:1:castep_labels:S:1 n_minim_iter=6 pbc="T T T"
P        2.58369245       5.55044314       0.75971533       0.00000000 NULL
P        0.67064688       2.17057636       2.80627284       0.00000000 NULL
P        0.95652278       4.58915720       6.37226101       0.00000000 NULL
P        2.29781654       1.20929042       4.32570351       0.00000000 NULL
P        2.32557091       0.82016544       1.07735621       0.00000000 NULL
P        0.92876841       4.20003222       2.48863196       0.00000000 NULL
P        0.69840125       2.55970134       6.05462013       0.00000000 NULL
P        2.55593808       5.93956812       4.64334438       0.00000000 NULL
8
Lattice="3.356780241114088 0.0 0.0 0.0 6.578417965542831 0.0 0.0 0.0 6.962445126212698" Properties=species:S:1:pos:R:3:initial_magmoms:R:1:castep_labels:S:1 n_minim_iter=7 pbc="T T T"
P        2.66583784       5.37891117       0.74398256       0.00000000 NULL
P        0.69094240       2.08970219       2.73724001       0.00000000 NULL
P        0.98744772       4.48871577       6.21846257       0.00000000 NULL
P        2.36933252       1.19950679       4.22520512       0.00000000 NULL
P        2.39959036       0.81202523       1.04856060       0.00000000 NULL
P        0.95718988       4.10123421       2.43266196       0.00000000 NULL
P        0.72120024       2.47718376       5.91388453       0.00000000 NULL
P        2.63558000       5.76639274       4.52978316       0.00000000 NULL
8
Lattice="3.4026891980671934 0.0 0.0 0.0 6.634284762798258 0.0 0.0 0.0 6.987333789839984" Properties=species:S:1:pos:R:3:initial_magmoms:R:1:castep_labels:S:1 n_minim_iter=8 pbc="T T T"
P        2.70321975       5.41185956       0.74837228       0.00000000 NULL
P        0.69946945       2.09471717       2.74529462       0.00000000 NULL
P        1.00187515       4.53956759       6.23896151       0.00000000 NULL
P        2.40081405       1.22242521       4.24203917       0.00000000 NULL
P        2.43248092       0.82784279       1.05068276       0.00000000 NULL
P        0.97020828       4.14498517       2.44298413       0.00000000 NULL
P        0.73113632       2.48929959       5.93665103       0.00000000 NULL
P        2.67155288       5.80644197       4.54434966       0.00000000 NULL
8
Lattice="3.3988945023746333 0.0 0.0 0.0 6.553138479363965 0.0 0.0 0.0 6.957097644703125" Properties=species:S:1:pos:R:3:initial_magmoms:R:1:castep_labels:S:1 n_minim_iter=9 pbc="T T T"
P        2.70042104       5.34071552       0.74614963       0.00000000 NULL
P        0.69847346       2.06414628       2.73239919       0.00000000 NULL
P        1.00097379       4.48899220       6.21094801       0.00000000 NULL
P        2.39792071       1.21242296       4.22469846       0.00000000 NULL
P        2.42995902       0.82069281       1.04536955       0.00000000 NULL
P        0.96893548       4.09726205       2.43317927       0.00000000 NULL
P        0.73051177       2.45587643       5.91172810       0.00000000 NULL
P        2.66838273       5.73244566       4.52391837       0.00000000 NULL
8
Lattice="3.4055852437388756 0.0 0.0 0.0 6.530125074753287 0.0 0.0 0.0 6.955665346553554" Properties=species:S:1:pos:R:3:initial_magmoms:R:1:castep_labels:S:1 n_minim_iter=10 pbc="T T T"
P        2.70608003       5.31646619       0.74702195       0.00000000 NULL
P        0.69950521       2.05140365       2.73081072       0.00000000 NULL
P        1.00328741       4.47872142       6.20864340       0.00000000 NULL
P        2.40229783       1.21365889       4.22485462       0.00000000 NULL
P        2.43486765       0.82147020       1.04436797       0.00000000 NULL
P        0.97071759       4.08653273       2.43346470       0.00000000 NULL
P        0.73207503       2.44359234       5.91129737       0.00000000 NULL
P        2.67351021       5.70865488       4.52220065       0.00000000 NULL
8
Lattice="3.424698415729558 0.0 0.0 0.0 6.447815530440853 0.0 0.0 0.0 6.954626080221124" Properties=species:S:1:pos:R:3:initial_magmoms:R:1:castep_labels:S:1 n_minim_iter=11 pbc="T T T"
P        2.72250841       5.22992064       0.75076617       0.00000000 NULL
P        0.70219000       2.00601287       2.72654687       0.00000000 NULL
P        1.01015921       4.44180266       6.20385991       0.00000000 NULL
P        2.41453921       1.21789489       4.22807921       0.00000000 NULL
P        2.44898477       0.82416424       1.04137480       0.00000000 NULL
P        0.97571365       4.04807200       2.43593824       0.00000000 NULL
P        0.73663556       2.39974353       5.91325128       0.00000000 NULL
P        2.68806286       5.62365129       4.51868784       0.00000000 NULL
8
Lattice="3.430235858362306 0.0 0.0 0.0 6.352203889017506 0.0 0.0 0.0 6.969668112148677" Properties=species:S:1:pos:R:3:initial_magmoms:R:1:castep_labels:S:1 n_minim_iter=12 pbc="T T T"
P        2.72849688       5.12739992       0.75809094       0.00000000 NULL
P        0.70173897       1.95129798       2.72674312       0.00000000 NULL
P        1.01337895       4.40090591       6.21157717       0.00000000 NULL
P        2.41685690       1.22480397       4.24292499       0.00000000 NULL
P        2.45351711       0.82880335       1.03995580       0.00000000 NULL
P        0.97671875       4.00490530       2.44487826       0.00000000 NULL
P        0.73839918       2.34729859       5.92971231       0.00000000 NULL
P        2.69183667       5.52340054       4.52478986       0.00000000 NULL
8
Lattice="3.433834609546778 0.0 0.0 0.0 5.836257477823388 0.0 0.0 0.0 7.106585776797802" Properties=species:S:1:pos:R:3:initial_magmoms:R:1:castep_labels:S:1 n_minim_iter=13 pbc="T T T"
P        2.74023475       4.57029188       0.81392672       0.00000000 NULL
P        0.69359986       1.65216314       2.73936617       0.00000000 NULL
P        1.02331744       4.18409434       6.29265906       0.00000000 NULL
P        2.41051717       1.26596560       4.36721961       0.00000000 NULL
P        2.46063226       0.85769622       1.03813372       0.00000000 NULL
P        0.97320235       3.77582496       2.51515917       0.00000000 NULL
P        0.74371496       2.06043251       6.06845206       0.00000000 NULL
P        2.69011965       4.97856125       4.59142660       0.00000000 NULL
8
Lattice="3.3937658313495644 0.0 0.0 0.0 5.230282734975678 0.0 0.0 0.0 6.132475268637644" Properties=species:S:1:pos:R:3:initial_magmoms:R:1:castep_labels:S:1 n_minim_iter=14 pbc="T T T"
P        2.70751578       3.95873778       0.76519691       0.00000000 NULL
P        0.68625005       1.34359642       2.30104072       0.00000000 NULL
P        1.01063286       3.88668632       5.36727836       0.00000000 NULL
P        2.38313297       1.27154495       3.83143455       0.00000000 NULL
P        2.44541442       0.87021245       0.89298414       0.00000000 NULL
P        0.94835141       3.48535382       2.17325349       0.00000000 NULL
P        0.74853151       1.74492892       5.23949113       0.00000000 NULL
P        2.64523432       4.36007028       3.95922178       0.00000000 NULL
8
Lattice="3.6514520816872933 0.0 0.0 0.0 5.612345674184512 0.0 0.0 0.0 7.0868880719348555" Properties=species:S:1:pos:R:3:initial_magmoms:R:1:castep_labels:S:1 n_minim_iter=15 pbc="T T T"
P        2.90965197       4.24323718       0.88733407       0.00000000 NULL
P        0.74180011       1.43706434       2.65610997       0.00000000 NULL
P        1.08392593       4.17528133       6.19955401       0.00000000 NULL
P        2.56752615       1.36910850       4.43077810       0.00000000 NULL
P        2.62984912       0.93946853       1.02758891       0.00000000 NULL
P        1.02160297       3.74564136       2.51585513       0.00000000 NULL
P        0.80412307       1.86670431       6.05929917       0.00000000 NULL
P        2.84732901       4.67287715       4.57103294       0.00000000 NULL
8
Lattice="3.5035341619542013 0.0 0.0 0.0 5.371636290167691 0.0 0.0 0.0 6.932264620265063" Properties=species:S:1:pos:R:3:initial_magmoms:R:1:castep_labels:S:1 n_minim_iter=16 pbc="T T T"
P        2.79004588       4.06081154       0.87010673       0.00000000 NULL
P        0.71348828       1.37499339       2.59602558       0.00000000 NULL
P        1.03827880       3.99664290       6.06215789       0.00000000 NULL
P        2.46525536       1.31082475       4.33623904       0.00000000 NULL
P        2.52444044       0.89968086       1.00589393       0.00000000 NULL
P        0.97909372       3.58549901       2.46023838       0.00000000 NULL
P        0.77267336       1.78613728       5.92637069       0.00000000 NULL
P        2.73086080       4.47195543       4.47202624       0.00000000 NULL
8
Lattice="3.501199050036439 0.0 0.0 0.0 5.355730391696513 0.0 0.0 0.0 7.01533447631991" Properties=species:S:1:pos:R:3:initial_magmoms:R:1:castep_labels:S:1 n_minim_iter=17 pbc="T T T"
P        2.78668940       4.04690967       0.88240221       0.00000000 NULL
P        0.71450965       1.36904447       2.62526503       0.00000000 NULL
P        1.03608987       3.98668592       6.13293227       0.00000000 NULL
P        2.46510918       1.30882072       4.39006945       0.00000000 NULL
P        2.52360038       0.89890387       1.01819905       0.00000000 NULL
P        0.97759867       3.57676907       2.48946819       0.00000000 NULL
P        0.77300085       1.77896133       5.99713543       0.00000000 NULL
P        2.72819820       4.45682652       4.52586629       0.00000000 NULL
8
Lattice="3.4834937716153216 0.0 0.0 0.0 5.3217370368810135 0.0 0.0 0.0 7.0992623993225745" Properties=species:S:1:pos:R:3:initial_magmoms:R:1:castep_labels:S:1 n_minim_iter=18 pbc="T T T"
P        2.76990906       4.01789884       0.89641752       0.00000000 NULL
P        0.71358471       1.35703032       2.65321368       0.00000000 NULL
P        1.02816217       3.96470672       6.20284488       0.00000000 NULL
P        2.45533160       1.30383820       4.44604872       0.00000000 NULL
P        2.51242702       0.89650023       1.03117489       0.00000000 NULL
P        0.97106675       3.55736875       2.51845631       0.00000000 NULL
P        0.77068013       1.76436829       6.06808751       0.00000000 NULL
P        2.71281364       4.42523681       4.58080609       0.00000000 NULL
