28
Lattice="5.790711483307475 0.0 0.0 0.0 9.221043499490372 0.0 0.0 0.0 10.652131815909371" Properties=species:S:1:pos:R:3:initial_magmoms:R:1:castep_labels:S:1:forces:R:3 n_minim_iter=1 energy=-149.908992901695 stress="0.0003262214253890517 0.0 -0.0 0.0 0.0006152407739188615 0.0 -0.0 0.0 0.0002746554086460666" free_energy=-149.908992901695 pbc="T T T"
P        1.37308681       0.46691165      -0.34654869       0.00000000 NULL       0.01003500      -0.00346800       0.00830300
P        4.41762468       8.75413185      -0.34654869       0.00000000 NULL      -0.01003500       0.00346800       0.00830300
P        1.37308681       8.75413185       4.97951721       0.00000000 NULL       0.01003500       0.00346800       0.00830200
P        4.41762468       0.46691165       4.97951721       0.00000000 NULL      -0.01003500      -0.00346800       0.00830200
P        1.05305549       8.89513054       7.19384440       0.00000000 NULL      -0.00296200      -0.01179500      -0.01254600
P        4.73765599       0.32591296       7.19384440       0.00000000 NULL       0.00296200       0.01179500      -0.01254600
P        1.05305549       0.32591296       1.86777849       0.00000000 NULL      -0.00296200       0.01179500      -0.01254700
P        4.73765599       8.89513054       1.86777849       0.00000000 NULL       0.00296200      -0.01179500      -0.01254700
P        2.45538671       1.54254020       5.13625420       0.00000000 NULL      -0.01413400      -0.00144200       0.00016300
P        3.33532478       7.67850330       5.13625420       0.00000000 NULL       0.01413400       0.00144200       0.00016300
P        2.45538671       7.67850330      10.46232011       0.00000000 NULL      -0.01413400       0.00144200       0.00016300
P        3.33532478       1.54254020      10.46232011       0.00000000 NULL       0.01413400      -0.00144200       0.00016300
P        5.35608215       6.96654497       2.76279022       0.00000000 NULL      -0.00443100       0.01027400      -0.00787800
P        0.43462934       2.25449853       2.76279022       0.00000000 NULL       0.00443100      -0.01027400      -0.00787800
P        5.35608215       2.25449853       8.08885613       0.00000000 NULL      -0.00443100      -0.01027400      -0.00787800
P        0.43462934       6.96654497       8.08885613       0.00000000 NULL       0.00443100       0.01027400      -0.00787800
P        4.98637831       5.36416446      10.12070920       0.00000000 NULL      -0.00969700       0.00638800      -0.01201000
P        0.80433318       3.85687904      10.12070920       0.00000000 NULL       0.00969700      -0.00638800      -0.01201000
P        4.98637831       3.85687904       4.79464329       0.00000000 NULL      -0.00969800      -0.00638800      -0.01201200
P        0.80433318       5.36416446       4.79464329       0.00000000 NULL       0.00969800       0.00638800      -0.01201200
P        0.68251374       5.48278215       1.07595236       0.00000000 NULL      -0.00794200       0.00090100       0.01542000
P        5.10819775       3.73826135       1.07595236       0.00000000 NULL       0.00794200      -0.00090100       0.01542000
P        0.68251374       3.73826135       6.40201827       0.00000000 NULL      -0.00794200      -0.00090200       0.01542200
P        5.10819775       5.48278215       6.40201827       0.00000000 NULL       0.00794200       0.00090200       0.01542200
P        3.27944569       2.56879072       8.51710547       0.00000000 NULL       0.02394000      -0.01113600       0.00854900
P        2.51126579       6.65225278       8.51710547       0.00000000 NULL      -0.02394000       0.01113600       0.00854900
P        3.27944569       6.65225278       3.19103956       0.00000000 NULL       0.02394000       0.01113600       0.00854900
P        2.51126579       2.56879072       3.19103956       0.00000000 NULL      -0.02394000      -0.01113600       0.00854900
28
Lattice="5.7892841656992875 0.0 0.0 0.0 9.216757481660771 0.0 0.0 0.0 10.649921219988226" Properties=species:S:1:pos:R:3:initial_magmoms:R:1:castep_labels:S:1:forces:R:3 n_minim_iter=2 energy=-149.909124310901 stress="-9.900345464860715e-05 -0.0 0.0 -0.0 9.995371887737089e-05 -0.0 0.0 -0.0 -0.00011070578265097538" free_energy=-149.909124310901 pbc="T T T"
P        1.37276169       0.46669002      -0.34646575       0.00000000 NULL       0.00366900      -0.00031400       0.00459200
P        4.41652247       8.75006746      -0.34646575       0.00000000 NULL      -0.00366900       0.00031400       0.00459200
P        1.37276169       8.75006746       4.97849486       0.00000000 NULL       0.00366900       0.00031400       0.00459300
P        4.41652247       0.46669002       4.97849486       0.00000000 NULL      -0.00366900      -0.00031400       0.00459300
P        1.05279199       8.89098034       7.19233483       0.00000000 NULL       0.00332800      -0.00800400      -0.01155400
P        4.73649217       0.32577714       7.19233483       0.00000000 NULL      -0.00332800       0.00800400      -0.01155400
P        1.05279199       0.32577714       1.86737422       0.00000000 NULL       0.00332800       0.00800400      -0.01155200
P        4.73649217       8.89098034       1.86737422       0.00000000 NULL      -0.00332800      -0.00800400      -0.01155200
P        2.45476272       1.54182130       5.13518851       0.00000000 NULL      -0.01586000       0.00628500       0.00418200
P        3.33452145       7.67493618       5.13518851       0.00000000 NULL       0.01585900      -0.00628500       0.00418200
P        2.45476272       7.67493618      10.46014912       0.00000000 NULL      -0.01586000      -0.00628500       0.00418100
P        3.33452145       1.54182130      10.46014912       0.00000000 NULL       0.01585900       0.00628500       0.00418100
P        5.35475607       6.96332050       2.76220641       0.00000000 NULL       0.00199900       0.00519400      -0.00538600
P        0.43452809       2.25343698       2.76220641       0.00000000 NULL      -0.00199900      -0.00519400      -0.00538600
P        5.35475607       2.25343698       8.08716702       0.00000000 NULL       0.00199900      -0.00519400      -0.00538700
P        0.43452809       6.96332050       8.08716702       0.00000000 NULL      -0.00199900       0.00519400      -0.00538700
P        4.98513636       5.36167963      10.11859293       0.00000000 NULL      -0.01776700       0.01483200      -0.01807900
P        0.80414780       3.85507785      10.11859293       0.00000000 NULL       0.01776700      -0.01483200      -0.01807900
P        4.98513636       3.85507785       4.79363232       0.00000000 NULL      -0.01776600      -0.01483100      -0.01807700
P        0.80414780       5.36167963       4.79363232       0.00000000 NULL       0.01776600       0.01483100      -0.01807700
P        0.68233496       5.48023490       1.07574956       0.00000000 NULL      -0.00117800       0.00980900       0.02144600
P        5.10694921       3.73652258       1.07574956       0.00000000 NULL       0.00117700      -0.00980900       0.02144700
P        0.68233496       3.73652258       6.40071017       0.00000000 NULL      -0.00117900      -0.00980900       0.02144500
P        5.10694921       5.48023490       6.40071017       0.00000000 NULL       0.00117800       0.00980900       0.02144500
P        3.27866916       2.56758194       8.51534930       0.00000000 NULL       0.01791600      -0.00674600       0.00479800
P        2.51061501       6.64917555       8.51534930       0.00000000 NULL      -0.01791700       0.00674600       0.00479800
P        3.27866916       6.64917555       3.19038869       0.00000000 NULL       0.01791600       0.00674600       0.00479800
P        2.51061501       2.56758194       3.19038869       0.00000000 NULL      -0.01791700      -0.00674600       0.00479800
28
Lattice="5.790904270873798 0.0 0.0 0.0 9.211981551145815 0.0 0.0 0.0 10.653493590148717" Properties=species:S:1:pos:R:3:initial_magmoms:R:1:castep_labels:S:1:forces:R:3 n_minim_iter=3 energy=-149.909190043564 stress="0.00010172119597105458 0.0 0.0 0.0 -8.694074196384375e-05 0.0 0.0 0.0 7.70695101804565e-05" free_energy=-149.909190043564 pbc="T T T"
P        1.37317381       0.46644466      -0.34654883       0.00000000 NULL       0.00445300       0.00307800       0.00861600
P        4.41773046       8.74553689      -0.34654883       0.00000000 NULL      -0.00445300      -0.00307700       0.00861600
P        1.37317381       8.74553689       4.98019796       0.00000000 NULL       0.00445300      -0.00307800       0.00861300
P        4.41773046       0.46644466       4.98019796       0.00000000 NULL      -0.00445300       0.00307800       0.00861300
P        1.05310668       8.88631673       7.19466771       0.00000000 NULL       0.00053900      -0.00312900      -0.01720900
P        4.73779759       0.32566482       7.19466771       0.00000000 NULL      -0.00053900       0.00312900      -0.01720900
P        1.05310668       0.32566482       1.86792092       0.00000000 NULL       0.00054000       0.00312900      -0.01721200
P        4.73779759       8.88631673       1.86792092       0.00000000 NULL      -0.00054000      -0.00312900      -0.01721200
P        2.45534166       1.54106203       5.13693796       0.00000000 NULL      -0.01270200       0.01157700       0.00215700
P        3.33556261       7.67091953       5.13693796       0.00000000 NULL       0.01270200      -0.01157700       0.00215700
P        2.45534166       7.67091953      10.46368475       0.00000000 NULL      -0.01270200      -0.01157700       0.00215700
P        3.33556261       1.54106203      10.46368475       0.00000000 NULL       0.01270200       0.01157600       0.00215700
P        5.35626546       6.95975006       2.76309491       0.00000000 NULL      -0.00166100       0.00037100      -0.00265100
P        0.43463881       2.25223149       2.76309491       0.00000000 NULL       0.00166100      -0.00037100      -0.00265100
P        5.35626546       2.25223149       8.08984171       0.00000000 NULL      -0.00166100      -0.00037100      -0.00265100
P        0.43463881       6.95975006       8.08984171       0.00000000 NULL       0.00166100       0.00037100      -0.00265100
P        4.98641312       5.35899922      10.12186573       0.00000000 NULL      -0.01037500       0.01533000      -0.01006500
P        0.80449115       3.85298233      10.12186573       0.00000000 NULL       0.01037500      -0.01533000      -0.01006500
P        4.98641312       3.85298233       4.79511894       0.00000000 NULL      -0.01037700      -0.01533000      -0.01006800
P        0.80449115       5.35899922       4.79511894       0.00000000 NULL       0.01037700       0.01533000      -0.01006800
P        0.68251486       5.47745845       1.07625487       0.00000000 NULL      -0.00547100       0.01262800       0.01396500
P        5.10838941       3.73452310       1.07625487       0.00000000 NULL       0.00547100      -0.01262800       0.01396500
P        0.68251486       3.73452310       6.40300166       0.00000000 NULL      -0.00546900      -0.01262900       0.01396900
P        5.10838941       5.47745845       6.40300166       0.00000000 NULL       0.00546900       0.01262900       0.01396900
P        3.27971220       2.56620333       8.51824021       0.00000000 NULL       0.02134900      -0.00777700       0.00518900
P        2.51119207       6.64577822       8.51824021       0.00000000 NULL      -0.02134900       0.00777700       0.00518900
P        3.27971220       6.64577822       3.19149342       0.00000000 NULL       0.02134900       0.00777700       0.00518900
P        2.51119207       2.56620333       3.19149342       0.00000000 NULL      -0.02134900      -0.00777700       0.00518900
28
Lattice="5.788186279806562 0.0 0.0 0.0 9.211839136597835 0.0 0.0 0.0 10.655286164840168" Properties=species:S:1:pos:R:3:initial_magmoms:R:1:castep_labels:S:1:forces:R:3 n_minim_iter=4 energy=-149.90944229397 stress="-0.0001551735346476161 -0.0 0.0 -0.0 2.737010507906568e-05 -0.0 0.0 -0.0 0.0001883872891712154" free_energy=-149.90944229397 pbc="T T T"
P        1.37277276       0.46652732      -0.34620537       0.00000000 NULL      -0.00229800       0.00596000       0.00235600
P        4.41541352       8.74531182      -0.34620537       0.00000000 NULL       0.00229800      -0.00596000       0.00235600
P        1.37277276       8.74531182       4.98143772       0.00000000 NULL      -0.00229800      -0.00596000       0.00235800
P        4.41541352       0.46652732       4.98143772       0.00000000 NULL       0.00229800       0.00596000       0.00235800
P        1.05271559       8.88586524       7.19501500       0.00000000 NULL       0.00470700      -0.00137800      -0.01210800
P        4.73547069       0.32597390       7.19501500       0.00000000 NULL      -0.00470700       0.00137800      -0.01210800
P        1.05271559       0.32597390       1.86737192       0.00000000 NULL       0.00470700       0.00137800      -0.01210700
P        4.73547069       8.88586524       1.86737192       0.00000000 NULL      -0.00470700      -0.00137800      -0.01210700
P        2.45335940       1.54157526       5.13798138       0.00000000 NULL      -0.01182100       0.00812100       0.00421800
P        3.33482688       7.67026388       5.13798138       0.00000000 NULL       0.01182100      -0.00812100       0.00421800
P        2.45335940       7.67026388      10.46562446       0.00000000 NULL      -0.01182100      -0.00812100       0.00421800
P        3.33482688       1.54157526      10.46562446       0.00000000 NULL       0.01182100       0.00812100       0.00421800
P        5.35374830       6.95979371       2.76333044       0.00000000 NULL       0.02012300      -0.00066200      -0.00500300
P        0.43443798       2.25204542       2.76333044       0.00000000 NULL      -0.02012300       0.00066200      -0.00500300
P        5.35374830       2.25204542       8.09097352       0.00000000 NULL       0.02012300       0.00066200      -0.00500300
P        0.43443798       6.95979371       8.09097352       0.00000000 NULL      -0.02012300      -0.00066200      -0.00500300
P        4.98326998       5.35980037      10.12276649       0.00000000 NULL       0.01115300      -0.00380200       0.00810800
P        0.80491630       3.85203877      10.12276649       0.00000000 NULL      -0.01115300       0.00380200       0.00810800
P        4.98326998       3.85203877       4.79512340       0.00000000 NULL       0.01115400       0.00380300       0.00811000
P        0.80491630       5.35980037       4.79512340       0.00000000 NULL      -0.01115400      -0.00380300       0.00811000
P        0.68198397       5.47803754       1.07745376       0.00000000 NULL      -0.01388400       0.00235300      -0.00341300
P        5.10620231       3.73380159       1.07745376       0.00000000 NULL       0.01388400      -0.00235300      -0.00341300
P        0.68198397       3.73380159       6.40509685       0.00000000 NULL      -0.01388500      -0.00235200      -0.00341400
P        5.10620231       5.47803754       6.40509685       0.00000000 NULL       0.01388500       0.00235200      -0.00341400
P        3.27933957       2.56573256       8.51996991       0.00000000 NULL       0.00103000      -0.00195800       0.00584000
P        2.50884671       6.64610658       8.51996991       0.00000000 NULL      -0.00103000       0.00195800       0.00584000
P        3.27933957       6.64610658       3.19232682       0.00000000 NULL       0.00103000       0.00195800       0.00584000
P        2.50884671       2.56573256       3.19232682       0.00000000 NULL      -0.00103000      -0.00195800       0.00584000
28
Lattice="5.789648926008709 0.0 0.0 0.0 9.211658959486885 0.0 0.0 0.0 10.651956267867204" Properties=species:S:1:pos:R:3:initial_magmoms:R:1:castep_labels:S:1:forces:R:3 n_minim_iter=5 energy=-149.909484717563 stress="4.330276770858076e-05 -0.0 -0.0 -0.0 2.3094809444576405e-05 -0.0 -0.0 -0.0 -3.0118307133894992e-05" free_energy=-149.909484717563 pbc="T T T"
P        1.37315117       0.46655375      -0.34602332       0.00000000 NULL       0.00169500       0.00697500      -0.00353900
P        4.41649776       8.74510521      -0.34602332       0.00000000 NULL      -0.00169500      -0.00697500      -0.00353900
P        1.37315117       8.74510521       4.97995481       0.00000000 NULL       0.00169500      -0.00697500      -0.00353700
P        4.41649776       0.46655375       4.97995481       0.00000000 NULL      -0.00169500       0.00697500      -0.00353700
P        1.05301546       8.88563545       7.19258288       0.00000000 NULL      -0.00010800       0.00127100      -0.00652900
P        4.73663347       0.32602351       7.19258288       0.00000000 NULL       0.00010800      -0.00127100      -0.00652900
P        1.05301546       0.32602351       1.86660474       0.00000000 NULL      -0.00010800      -0.00127100      -0.00652700
P        4.73663347       8.88563545       1.86660474       0.00000000 NULL       0.00010800       0.00127100      -0.00652700
P        2.45380194       1.54166232       5.13642011       0.00000000 NULL      -0.00820600       0.00370300       0.00812100
P        3.33584698       7.66999664       5.13642011       0.00000000 NULL       0.00820600      -0.00370300       0.00812100
P        2.45380194       7.66999664      10.46239824       0.00000000 NULL      -0.00820600      -0.00370300       0.00812100
P        3.33584698       1.54166232      10.46239824       0.00000000 NULL       0.00820600       0.00370300       0.00812100
P        5.35517018       6.95967961       2.76241227       0.00000000 NULL       0.01692800      -0.00172900      -0.00280500
P        0.43447875       2.25197935       2.76241227       0.00000000 NULL      -0.01692800       0.00172900      -0.00280500
P        5.35517018       2.25197935       8.08839040       0.00000000 NULL       0.01692800       0.00172900      -0.00280500
P        0.43447875       6.95967961       8.08839040       0.00000000 NULL      -0.01692800      -0.00172900      -0.00280500
P        4.98443407       5.35982929      10.11949786       0.00000000 NULL       0.01661500      -0.00700200       0.00711800
P        0.80521485       3.85182967      10.11949786       0.00000000 NULL      -0.01661500       0.00700200       0.00711800
P        4.98443407       3.85182967       4.79351972       0.00000000 NULL       0.01661600       0.00700200       0.00712000
P        0.80521485       5.35982929       4.79351972       0.00000000 NULL      -0.01661600      -0.00700200       0.00712000
P        0.68207492       5.47804893       1.07727376       0.00000000 NULL      -0.01575600       0.00179600      -0.00354700
P        5.10757400       3.73361003       1.07727376       0.00000000 NULL       0.01575600      -0.00179600      -0.00354700
P        0.68207492       3.73361003       6.40325189       0.00000000 NULL      -0.01575700      -0.00179600      -0.00355000
P        5.10757400       5.47804893       6.40325189       0.00000000 NULL       0.01575700       0.00179600      -0.00355000
P        3.28036342       2.56560516       8.51737569       0.00000000 NULL       0.00369300      -0.00008300       0.00118000
P        2.50928551       6.64605380       8.51737569       0.00000000 NULL      -0.00369300       0.00008300       0.00118000
P        3.28036342       6.64605380       3.19139756       0.00000000 NULL       0.00369300       0.00008300       0.00118000
P        2.50928551       2.56560516       3.19139756       0.00000000 NULL      -0.00369300      -0.00008300       0.00118000
28
Lattice="5.788817919438992 0.0 0.0 0.0 9.20712044535899 0.0 0.0 0.0 10.65859524285377" Properties=species:S:1:pos:R:3:initial_magmoms:R:1:castep_labels:S:1:forces:R:3 n_minim_iter=6 energy=-149.909842217512 stress="6.1786480418674385e-06 -0.0 0.0 -0.0 9.488009386229485e-06 -0.0 0.0 -0.0 1.4205609600532829e-05" free_energy=-149.909842217512 pbc="T T T"
P        1.37341545       0.46749036      -0.34606333       0.00000000 NULL       0.00150300       0.00943300      -0.00690700
P        4.41540247       8.73963009      -0.34606333       0.00000000 NULL      -0.00150300      -0.00943300      -0.00690700
P        1.37341545       8.73963009       4.98323429       0.00000000 NULL       0.00150300      -0.00943300      -0.00690500
P        4.41540247       0.46749036       4.98323429       0.00000000 NULL      -0.00150300       0.00943300      -0.00690500
P        1.05315451       8.88095439       7.19471107       0.00000000 NULL      -0.00540800      -0.00281200       0.00176600
P        4.73566341       0.32616606       7.19471107       0.00000000 NULL       0.00540800       0.00281200       0.00176600
P        1.05315451       0.32616606       1.86541345       0.00000000 NULL      -0.00540800       0.00281200       0.00176800
P        4.73566341       8.88095439       1.86541345       0.00000000 NULL       0.00540800      -0.00281200       0.00176800
P        2.45093254       1.54238026       5.14101641       0.00000000 NULL       0.00439400      -0.00715100      -0.00206500
P        3.33788538       7.66474018       5.14101641       0.00000000 NULL      -0.00439400       0.00715100      -0.00206500
P        2.45093254       7.66474018      10.47031403       0.00000000 NULL       0.00439400       0.00715100      -0.00206500
P        3.33788538       1.54238026      10.47031403       0.00000000 NULL      -0.00439400      -0.00715100      -0.00206500
P        5.35706380       6.95620531       2.76334094       0.00000000 NULL       0.01126300      -0.00103700       0.00264000
P        0.43175412       2.25091513       2.76334094       0.00000000 NULL      -0.01126300       0.00103700       0.00264000
P        5.35706380       2.25091513       8.09263856       0.00000000 NULL       0.01126300       0.00103700       0.00263900
P        0.43175412       6.95620531       8.09263856       0.00000000 NULL      -0.01126300      -0.00103700       0.00263900
P        4.98489709       5.35751868      10.12573718       0.00000000 NULL      -0.00732500      -0.00011700       0.00420000
P        0.80392082       3.84960177      10.12573718       0.00000000 NULL       0.00732500       0.00011700       0.00420000
P        4.98489709       3.84960177       4.79643956       0.00000000 NULL      -0.00732400       0.00011800       0.00420200
P        0.80392082       5.35751868       4.79643956       0.00000000 NULL       0.00732400      -0.00011800       0.00420200
P        0.67938913       5.47662327       1.07888698       0.00000000 NULL       0.00770100       0.00798000      -0.00096900
P        5.10942879       3.73049718       1.07888698       0.00000000 NULL      -0.00770100      -0.00798000      -0.00096900
P        0.67938913       3.73049718       6.40818460       0.00000000 NULL       0.00770000      -0.00798000      -0.00097100
P        5.10942879       5.47662327       6.40818460       0.00000000 NULL      -0.00770000       0.00798000      -0.00097100
P        3.28200273       2.56369024       8.52338741       0.00000000 NULL       0.00546800       0.00174500       0.00133300
P        2.50681519       6.64343020       8.52338741       0.00000000 NULL      -0.00546800      -0.00174500       0.00133300
P        3.28200273       6.64343020       3.19408979       0.00000000 NULL       0.00546800      -0.00174500       0.00133300
P        2.50681519       2.56369024       3.19408979       0.00000000 NULL      -0.00546800       0.00174500       0.00133300
28
Lattice="5.787846300431229 0.0 0.0 0.0 9.204309261185097 0.0 0.0 0.0 10.659033989348549" Properties=species:S:1:pos:R:3:initial_magmoms:R:1:castep_labels:S:1:forces:R:3 n_minim_iter=7 energy=-149.910046162786 stress="5.98760182884487e-07 -0.0 0.0 -0.0 -2.923358539965436e-06 -0.0 0.0 -0.0 2.4478725123806965e-06" free_energy=-149.910046162786 pbc="T T T"
P        1.37368417       0.46955193      -0.34712600       0.00000000 NULL      -0.00849700      -0.00179600      -0.00152000
P        4.41416213       8.73475733      -0.34712600       0.00000000 NULL       0.00849700       0.00179600      -0.00152000
P        1.37368417       8.73475733       4.98239099       0.00000000 NULL      -0.00849700       0.00179600      -0.00152000
P        4.41416213       0.46955193       4.98239099       0.00000000 NULL       0.00849700      -0.00179600      -0.00152000
P        1.05227248       8.87762775       7.19396699       0.00000000 NULL       0.00631000      -0.01072100      -0.00069500
P        4.73557382       0.32668151       7.19396699       0.00000000 NULL      -0.00631000       0.01072100      -0.00069500
P        1.05227248       0.32668151       1.86444999       0.00000000 NULL       0.00631000       0.01072100      -0.00069500
P        4.73557382       8.87762775       1.86444999       0.00000000 NULL      -0.00631000      -0.01072100      -0.00069500
P        2.44979969       1.54160495       5.14170859       0.00000000 NULL      -0.00440000      -0.00352700      -0.00546600
P        3.33804661       7.66270431       5.14170859       0.00000000 NULL       0.00440000       0.00352700      -0.00546600
P        2.44979969       7.66270431      10.47122559       0.00000000 NULL      -0.00440000       0.00352700      -0.00546600
P        3.33804661       1.54160495      10.47122559       0.00000000 NULL       0.00440000      -0.00352700      -0.00546600
P        5.35952158       6.95387265       2.76344371       0.00000000 NULL      -0.00011800      -0.00127100       0.00877400
P        0.42832472       2.25043661       2.76344371       0.00000000 NULL       0.00011800       0.00127100       0.00877400
P        5.35952158       2.25043661       8.09296071       0.00000000 NULL      -0.00011800       0.00127100       0.00877400
P        0.42832472       6.95387265       8.09296071       0.00000000 NULL       0.00011800      -0.00127100       0.00877400
P        4.98351845       5.35607711      10.12676895       0.00000000 NULL      -0.00322000      -0.00343000       0.00339700
P        0.80432785       3.84823215      10.12676895       0.00000000 NULL       0.00322000       0.00343000       0.00339700
P        4.98351845       3.84823215       4.79725196       0.00000000 NULL      -0.00322100       0.00343000       0.00339700
P        0.80432785       5.35607711       4.79725196       0.00000000 NULL       0.00322100      -0.00343000       0.00339700
P        0.67907143       5.47699951       1.07933862       0.00000000 NULL      -0.00374700      -0.01089200      -0.00131200
P        5.10877487       3.72730975       1.07933862       0.00000000 NULL       0.00374700       0.01089200      -0.00131200
P        0.67907143       3.72730975       6.40885561       0.00000000 NULL      -0.00374700       0.01089200      -0.00131200
P        5.10877487       5.47699951       6.40885561       0.00000000 NULL       0.00374700      -0.01089200      -0.00131200
P        3.28353839       2.56283465       8.52433511       0.00000000 NULL       0.01128500       0.00374000      -0.00317800
P        2.50430791       6.64147461       8.52433511       0.00000000 NULL      -0.01128500      -0.00374000      -0.00317800
P        3.28353839       6.64147461       3.19481812       0.00000000 NULL       0.01128500      -0.00374000      -0.00317800
P        2.50430791       2.56283465       3.19481812       0.00000000 NULL      -0.01128500       0.00374000      -0.00317800
28
Lattice="5.78596206452137 0.0 0.0 0.0 9.204073413600604 0.0 0.0 0.0 10.66112990143915" Properties=species:S:1:pos:R:3:initial_magmoms:R:1:castep_labels:S:1:forces:R:3 n_minim_iter=8 energy=-149.910340888613 stress="-1.4090652881588052e-07 0.0 -0.0 0.0 -1.2804880806143142e-05 0.0 -0.0 0.0 -4.931728508555818e-06" free_energy=-149.910340888613 pbc="T T T"
P        1.37216298       0.47231967      -0.34903294       0.00000000 NULL       0.00309700      -0.00871800       0.00585900
P        4.41379909       8.73175374      -0.34903294       0.00000000 NULL      -0.00309700       0.00871800       0.00585900
P        1.37216298       8.73175374       4.98153201       0.00000000 NULL       0.00309700       0.00871800       0.00585800
P        4.41379909       0.47231967       4.98153201       0.00000000 NULL      -0.00309700      -0.00871800       0.00585800
P        1.05224944       8.87426694       7.19375609       0.00000000 NULL      -0.00909000      -0.00314900      -0.00173400
P        4.73371262       0.32980647       7.19375609       0.00000000 NULL       0.00909000       0.00314900      -0.00173400
P        1.05224944       0.32980647       1.86319113       0.00000000 NULL      -0.00909000       0.00314900      -0.00173500
P        4.73371262       8.87426694       1.86319113       0.00000000 NULL       0.00909000      -0.00314900      -0.00173500
P        2.44703916       1.54038245       5.14226647       0.00000000 NULL      -0.00851300      -0.00255600      -0.00990500
P        3.33892291       7.66369097       5.14226647       0.00000000 NULL       0.00851300       0.00255600      -0.00990500
P        2.44703916       7.66369097      10.47283142       0.00000000 NULL      -0.00851300       0.00255600      -0.00990500
P        3.33892291       1.54038245      10.47283142       0.00000000 NULL       0.00851300      -0.00255600      -0.00990500
P        5.36256194       6.95312686       2.76582896       0.00000000 NULL       0.01208000       0.00485500       0.00244100
P        0.42340013       2.25094655       2.76582896       0.00000000 NULL      -0.01208000      -0.00485500       0.00244100
P        5.36256194       2.25094655       8.09639391       0.00000000 NULL       0.01208000      -0.00485500       0.00244200
P        0.42340013       6.95312686       8.09639391       0.00000000 NULL      -0.01208000       0.00485500       0.00244200
P        4.98045025       5.35549110      10.13035037       0.00000000 NULL       0.00097800      -0.00711900      -0.00510000
P        0.80551182       3.84858231      10.13035037       0.00000000 NULL      -0.00097800       0.00711900      -0.00510000
P        4.98045025       3.84858231       4.79978542       0.00000000 NULL       0.00097800       0.00711900      -0.00510100
P        0.80551182       5.35549110       4.79978542       0.00000000 NULL      -0.00097800      -0.00711900      -0.00510100
P        0.67776213       5.47749968       1.07986418       0.00000000 NULL       0.00482700      -0.00366800       0.00922900
P        5.10819994       3.72657373       1.07986418       0.00000000 NULL      -0.00482700       0.00366800       0.00922900
P        0.67776213       3.72657373       6.41042913       0.00000000 NULL       0.00482700       0.00366800       0.00923000
P        5.10819994       5.47749968       6.41042913       0.00000000 NULL      -0.00482700      -0.00366800       0.00923000
P        3.28783747       2.56345769       8.52618315       0.00000000 NULL      -0.00848100       0.00339400      -0.00079000
P        2.49812459       6.64061572       8.52618315       0.00000000 NULL       0.00848100      -0.00339400      -0.00079000
P        3.28783747       6.64061572       3.19561820       0.00000000 NULL      -0.00848100      -0.00339400      -0.00079000
P        2.49812459       2.56345769       3.19561820       0.00000000 NULL       0.00848100       0.00339400      -0.00079000
28
Lattice="5.780078199162857 0.0 0.0 0.0 9.210663922089726 0.0 0.0 0.0 10.66226768792212" Properties=species:S:1:pos:R:3:initial_magmoms:R:1:castep_labels:S:1:forces:R:3 n_minim_iter=9 energy=-149.910655020304 stress="-6.412496636212053e-06 0.0 0.0 0.0 -1.160943759138391e-05 0.0 0.0 0.0 -1.5027086897496926e-05" free_energy=-149.910655020304 pbc="T T T"
P        1.37021629       0.47406044      -0.34995136       0.00000000 NULL       0.00364100       0.00022700      -0.00363400
P        4.40986191       8.73660348      -0.34995136       0.00000000 NULL      -0.00364100      -0.00022700      -0.00363400
P        1.37021629       8.73660348       4.98118248       0.00000000 NULL       0.00364100      -0.00022700      -0.00363600
P        4.40986191       0.47406044       4.98118248       0.00000000 NULL      -0.00364100       0.00022700      -0.00363600
P        1.04984934       8.87671254       7.19244393       0.00000000 NULL       0.00922900      -0.00294600       0.00670700
P        4.73022886       0.33395138       7.19244393       0.00000000 NULL      -0.00922900       0.00294600       0.00670700
P        1.04984934       0.33395138       1.86131009       0.00000000 NULL       0.00922900       0.00294600       0.00670400
P        4.73022886       8.87671254       1.86131009       0.00000000 NULL      -0.00922900      -0.00294600       0.00670400
P        2.44090765       1.53976466       5.14053903       0.00000000 NULL      -0.00065600      -0.00014300      -0.00033000
P        3.33917055       7.67089927       5.14053903       0.00000000 NULL       0.00065600       0.00014300      -0.00033000
P        2.44090765       7.67089927      10.47167287       0.00000000 NULL      -0.00065600       0.00014300      -0.00032900
P        3.33917055       1.53976466      10.47167287       0.00000000 NULL       0.00065600      -0.00014400      -0.00032900
P        5.36440346       6.95838645       2.76851147       0.00000000 NULL       0.00394600       0.00167400      -0.00484900
P        0.41567474       2.25227747       2.76851147       0.00000000 NULL      -0.00394600      -0.00167400      -0.00484900
P        5.36440346       2.25227747       8.09964531       0.00000000 NULL       0.00394600      -0.00167400      -0.00484900
P        0.41567474       6.95838645       8.09964531       0.00000000 NULL      -0.00394600       0.00167400      -0.00484900
P        4.97405705       5.35755036      10.13221628       0.00000000 NULL      -0.00121900       0.00317400       0.00246400
P        0.80602115       3.85311356      10.13221628       0.00000000 NULL       0.00121900      -0.00317400       0.00246400
P        4.97405705       3.85311356       4.80108244       0.00000000 NULL      -0.00122100      -0.00317400       0.00246200
P        0.80602115       5.35755036       4.80108244       0.00000000 NULL       0.00122100       0.00317400       0.00246200
P        0.67675142       5.48145548       1.08198362       0.00000000 NULL       0.00034000      -0.00195000       0.00598500
P        5.10332678       3.72920844       1.08198362       0.00000000 NULL      -0.00034000       0.00195000       0.00598500
P        0.67675142       3.72920844       6.41311747       0.00000000 NULL       0.00034200       0.00194900       0.00598700
P        5.10332678       5.48145548       6.41311747       0.00000000 NULL      -0.00034200      -0.00194900       0.00598700
P        3.28870651       2.56661968       8.52715392       0.00000000 NULL      -0.00338500      -0.00225700      -0.00634100
P        2.49137169       6.64404424       8.52715392       0.00000000 NULL       0.00338500       0.00225700      -0.00634100
P        3.28870651       6.64404424       3.19602007       0.00000000 NULL      -0.00338500       0.00225700      -0.00634100
P        2.49137169       2.56661968       3.19602007       0.00000000 NULL       0.00338500      -0.00225700      -0.00634100
28
Lattice="5.775950114773422 0.0 0.0 0.0 9.215464150469908 0.0 0.0 0.0 10.659560073210319" Properties=species:S:1:pos:R:3:initial_magmoms:R:1:castep_labels:S:1:forces:R:3 n_minim_iter=10 energy=-149.910756975521 stress="-1.2055249171127305e-05 -0.0 0.0 -0.0 -4.2299119898692296e-06 -0.0 0.0 -0.0 -1.896410542124705e-05" free_energy=-149.910756975521 pbc="T T T"
P        1.36968534       0.47481902      -0.35069008       0.00000000 NULL      -0.00830400       0.00076900       0.00018700
P        4.40626478       8.74064513      -0.35069008       0.00000000 NULL       0.00830400      -0.00076900       0.00018700
P        1.36968534       8.74064513       4.97908995       0.00000000 NULL      -0.00830400      -0.00076900       0.00018800
P        4.40626478       0.47481902       4.97908995       0.00000000 NULL       0.00830400       0.00076900       0.00018800
P        1.05014543       8.87961465       7.19097494       0.00000000 NULL      -0.00389000       0.00471700       0.00206300
P        4.72580469       0.33584950       7.19097494       0.00000000 NULL       0.00389000      -0.00471700       0.00206300
P        1.05014543       0.33584950       1.86119490       0.00000000 NULL      -0.00389000      -0.00471700       0.00206400
P        4.72580469       8.87961465       1.86119490       0.00000000 NULL       0.00389000       0.00471700       0.00206400
P        2.43788282       1.54001737       5.13844390       0.00000000 NULL      -0.00240000       0.00099600       0.00046900
P        3.33806729       7.67544678       5.13844390       0.00000000 NULL       0.00240000      -0.00099600       0.00046900
P        2.43788282       7.67544678      10.46822393       0.00000000 NULL      -0.00240000      -0.00099600       0.00046900
P        3.33806729       1.54001737      10.46822393       0.00000000 NULL       0.00240000       0.00099600       0.00046900
P        5.36354965       6.96237950       2.76775075       0.00000000 NULL      -0.00014900      -0.00266100      -0.00152400
P        0.41240047       2.25308465       2.76775075       0.00000000 NULL       0.00014900       0.00266100      -0.00152400
P        5.36354965       2.25308465       8.09753079       0.00000000 NULL      -0.00014900       0.00266100      -0.00152400
P        0.41240047       6.96237950       8.09753079       0.00000000 NULL       0.00014900      -0.00266100      -0.00152400
P        4.96992967       5.36028684      10.13034878       0.00000000 NULL       0.00115900      -0.00097100       0.00144200
P        0.80602044       3.85517731      10.13034878       0.00000000 NULL      -0.00115900       0.00097100       0.00144200
P        4.96992967       3.85517731       4.80056874       0.00000000 NULL       0.00115900       0.00097100       0.00144200
P        0.80602044       5.36028684       4.80056874       0.00000000 NULL      -0.00115900      -0.00097100       0.00144200
P        0.67616548       5.48402750       1.08328707       0.00000000 NULL       0.00390600      -0.00023100       0.00453500
P        5.09978464       3.73143665       1.08328707       0.00000000 NULL      -0.00390600       0.00023100       0.00453500
P        0.67616548       3.73143665       6.41306710       0.00000000 NULL       0.00390500       0.00023100       0.00453400
P        5.09978464       5.48402750       6.41306710       0.00000000 NULL      -0.00390500      -0.00023100       0.00453500
P        3.28720231       2.56797207       8.52402223       0.00000000 NULL       0.00202500      -0.00376100      -0.00717300
P        2.48874781       6.64749208       8.52402223       0.00000000 NULL      -0.00202500       0.00376100      -0.00717300
P        3.28720231       6.64749208       3.19424219       0.00000000 NULL       0.00202500       0.00376100      -0.00717200
P        2.48874781       2.56797207       3.19424219       0.00000000 NULL      -0.00202500      -0.00376100      -0.00717200
