10
Lattice="4.199980000000001 1.2508380478920735e-15 1.5091056720868185e-15 -1.504954371720896 6.893730370934024 -9.195373738866327e-16 -1.562132958644242 -3.2054313239194303 7.744291172938524" Properties=species:S:1:pos:R:3:initial_magmoms:R:1:castep_labels:S:1 n_minim_iter=1 pbc="T T T"
P        0.51532278       4.90376953       2.75114550       0.00000000 NULL
P        1.94605395       1.11758456       2.97268953       0.00000000 NULL
P       -0.28113324       1.18802846       2.31449913       0.00000000 NULL
P        0.95719094       3.99563142       6.91561020       0.00000000 NULL
P       -0.47345672       4.56755453       4.72854957       0.00000000 NULL
P       -1.18356689      -1.63494492       5.46690888       0.00000000 NULL
P        2.70707122       1.02391448       0.70337912       0.00000000 NULL
P        1.18245972       2.99928239       2.33222349       0.00000000 NULL
P       -1.29535866       3.45364885       7.15315704       0.00000000 NULL
P        2.89414288      -0.36808764       3.91917434       0.00000000 NULL
10
Lattice="4.209072866854206 -0.001786554480741823 0.0017884766902170062 -1.5111449665825247 6.908482096663052 -0.006569188741851191 -1.5608536918529758 -3.2179881805189403 7.763692893679976" Properties=species:S:1:pos:R:3:initial_magmoms:R:1:castep_labels:S:1 n_minim_iter=2 pbc="T T T"
P        0.51534925       4.91134038       2.75323643       0.00000000 NULL
P        1.95082642       1.11664675       2.97929647       0.00000000 NULL
P       -0.28095477       1.18862128       2.31864821       0.00000000 NULL
P        0.96045316       3.99726802       6.92819148       0.00000000 NULL
P       -0.47453406       4.57299356       4.73490460       0.00000000 NULL
P       -1.18297938      -1.64240486       5.48009233       0.00000000 NULL
P        2.71272821       1.02447878       0.70516364       0.00000000 NULL
P        1.18473334       3.00292587       2.33523244       0.00000000 NULL
P       -1.29654758       3.45475850       7.16563168       0.00000000 NULL
P        2.90241787      -0.37347904       3.92938569       0.00000000 NULL
10
Lattice="4.447278776045157 -0.051715814633358094 0.05163253465115039 -1.6784524017415074 7.2983364371843 -0.18679970873129612 -1.5194386349068434 -3.5547760421411447 8.279278757107864" Properties=species:S:1:pos:R:3:initial_magmoms:R:1:castep_labels:S:1 n_minim_iter=3 pbc="T T T"
P        0.51400516       5.10831208       2.80504388       0.00000000 NULL
P        2.07690015       1.08810943       3.15458753       0.00000000 NULL
P       -0.27514855       1.20226874       2.42766031       0.00000000 NULL
P        1.04804102       4.03341497       7.25924112       0.00000000 NULL
P       -0.50290604       4.71254713       4.89931950       0.00000000 NULL
P       -1.16241424      -1.84308605       5.82998980       0.00000000 NULL
P        2.86055454       1.03720491       0.75302341       0.00000000 NULL
P        1.24365771       3.09615181       2.41322306       0.00000000 NULL
P       -1.32509807       3.47817837       7.49300284       0.00000000 NULL
P        3.12245618      -0.52105024       4.20183825       0.00000000 NULL
10
Lattice="4.468559019740089 -0.10508593225332019 0.09285621070862497 -1.7736778543667622 7.42549538038188 -0.31669472406745974 -1.4106095863531756 -3.7144873233542786 8.450484931924755" Properties=species:S:1:pos:R:3:initial_magmoms:R:1:castep_labels:S:1 n_minim_iter=4 pbc="T T T"
P        0.47621777       5.13470887       2.77738162       0.00000000 NULL
P        2.09887280       1.03399972       3.20731465       0.00000000 NULL
P       -0.26439403       1.18715480       2.44629920       0.00000000 NULL
P        1.07112924       3.96574688       7.32363610       0.00000000 NULL
P       -0.51641758       4.71079928       4.89622842       0.00000000 NULL
P       -1.09417017      -1.94444366       5.94092582       0.00000000 NULL
P        2.86811943       1.01142136       0.77317437       0.00000000 NULL
P        1.23346859       3.08856494       2.41282393       0.00000000 NULL
P       -1.30578158       3.42338564       7.54662628       0.00000000 NULL
P        3.18364839      -0.63046479       4.30035799       0.00000000 NULL
10
Lattice="4.435922102392247 -0.1758511486503842 0.1459913027284757 -1.8781353160784955 7.500518993470886 -0.46678876887537013 -1.2464874072848682 -3.858485150035994 8.57349705610334" Properties=species:S:1:pos:R:3:initial_magmoms:R:1:castep_labels:S:1 n_minim_iter=5 pbc="T T T"
P        0.41689410       5.11104778       2.72364304       0.00000000 NULL
P        2.09966815       0.95620931       3.24402471       0.00000000 NULL
P       -0.24781506       1.15891203       2.44533203       0.00000000 NULL
P        1.08625041       3.84400613       7.33613253       0.00000000 NULL
P       -0.52785571       4.66169987       4.84782264       0.00000000 NULL
P       -0.98982533      -2.03995221       6.01623991       0.00000000 NULL
P        2.83938189       0.96603654       0.79440163       0.00000000 NULL
P        1.20208425       3.04417226       2.39358670       0.00000000 NULL
P       -1.26436801       3.32631054       7.54187137       0.00000000 NULL
P        3.22080231      -0.75822112       4.38082040       0.00000000 NULL
10
Lattice="4.372890728924494 -0.2877927480698835 0.23797877070567433 -2.0392874793347686 7.525278527841922 -0.6669378809859743 -0.9679950736479473 -3.9975272327801217 8.71987595045447" Properties=species:S:1:pos:R:3:initial_magmoms:R:1:castep_labels:S:1 n_minim_iter=6 pbc="T T T"
P        0.32286842       5.02130801       2.65961892       0.00000000 NULL
P        2.10069346       0.83571844       3.30515257       0.00000000 NULL
P       -0.21490028       1.11302605       2.43926797       0.00000000 NULL
P        1.12284698       3.63728119       7.35554483       0.00000000 NULL
P       -0.53570447       4.54984169       4.77684394       0.00000000 NULL
P       -0.81199963      -2.13664637       6.10521764       0.00000000 NULL
P        2.78901498       0.88881058       0.83980162       0.00000000 NULL
P        1.15487277       2.94425434       2.37594614       0.00000000 NULL
P       -1.18278189       3.16273704       7.52747691       0.00000000 NULL
P        3.27925535      -0.93123551       4.49774912       0.00000000 NULL
10
Lattice="4.398180901138993 -0.33650131046332415 0.29610130723290135 -2.128298439180335 7.484224663135356 -0.7138138833420418 -0.8330555771100011 -3.9814693561355283 8.838076155554653" Properties=species:S:1:pos:R:3:initial_magmoms:R:1:castep_labels:S:1 n_minim_iter=7 pbc="T T T"
P        0.28826822       4.96078251       2.69670376       0.00000000 NULL
P        2.13396933       0.79766463       3.38791499       0.00000000 NULL
P       -0.18767416       1.10188266       2.46202450       0.00000000 NULL
P        1.18537510       3.56321165       7.46539342       0.00000000 NULL
P       -0.52597088       4.49848482       4.81728276       0.00000000 NULL
P       -0.72554741      -2.12847758       6.18838178       0.00000000 NULL
P        2.80645898       0.86357088       0.89356818       0.00000000 NULL
P        1.16286555       2.89094446       2.41959600       0.00000000 NULL
P       -1.13617257       3.10138963       7.61522087       0.00000000 NULL
P        3.36142743      -0.97383701       4.60005453       0.00000000 NULL
10
Lattice="4.341412770363916 -0.3509427480849967 0.30173067643259927 -2.1316608196078812 7.406799342582907 -0.7374811140120551 -0.7905396892244052 -3.9620121723458097 8.792383027273083" Properties=species:S:1:pos:R:3:initial_magmoms:R:1:castep_labels:S:1 n_minim_iter=8 pbc="T T T"
P        0.25845663       4.88966909       2.66544389       0.00000000 NULL
P        2.10546472       0.77109585       3.37230592       0.00000000 NULL
P       -0.18173259       1.08284590       2.43620445       0.00000000 NULL
P        1.17068938       3.48912415       7.40506043       0.00000000 NULL
P       -0.52840230       4.43062285       4.76327495       0.00000000 NULL
P       -0.69721501      -2.12175042       6.15443269       0.00000000 NULL
P        2.76887759       0.84698752       0.89228581       0.00000000 NULL
P        1.14292889       2.84170262       2.39634512       0.00000000 NULL
P       -1.12195845       3.03346899       7.55570217       0.00000000 NULL
P        3.33126261      -0.98997325       4.57565617       0.00000000 NULL
10
Lattice="4.363232472100266 -0.352720121805541 0.30893751149584225 -2.1423966780442494 7.419266274005073 -0.7550313556468702 -0.7840101811474399 -3.9836664314781642 8.846930537667388" Properties=species:S:1:pos:R:3:initial_magmoms:R:1:castep_labels:S:1 n_minim_iter=9 pbc="T T T"
P        0.25751711       4.89088974       2.67321778       0.00000000 NULL
P        2.11802401       0.76740946       3.39678816       0.00000000 NULL
P       -0.17721592       1.07988965       2.44531888       0.00000000 NULL
P        1.18782813       3.47959875       7.44189449       0.00000000 NULL
P       -0.52539947       4.42796923       4.78002443       0.00000000 NULL
P       -0.69270239      -2.13551157       6.19205762       0.00000000 NULL
P        2.78442208       0.85112382       0.90125752       0.00000000 NULL
P        1.15426497       2.84098843       2.40698015       0.00000000 NULL
P       -1.11898205       3.01842189       7.59360164       0.00000000 NULL
P        3.35519019      -0.99871175       4.60621782       0.00000000 NULL
10
Lattice="4.356273381292578 -0.353724640832831 0.3110767448819412 -2.1415518571623346 7.404816492292921 -0.7679908348581372 -0.7767106730313839 -3.9901039465887 8.856773638368441" Properties=species:S:1:pos:R:3:initial_magmoms:R:1:castep_labels:S:1 n_minim_iter=10 pbc="T T T"
P        0.25165837       4.87437804       2.66695014       0.00000000 NULL
P        2.11470114       0.76070629       3.40128261       0.00000000 NULL
P       -0.17432644       1.07343000       2.44172206       0.00000000 NULL
P        1.19019329       3.45800164       7.43876155       0.00000000 NULL
P       -0.52360116       4.40967174       4.77191639       0.00000000 NULL
P       -0.68733704      -2.14117677       6.19817242       0.00000000 NULL
P        2.78071613       0.85100083       0.90267203       0.00000000 NULL
P        1.15496553       2.82972898       2.40396475       0.00000000 NULL
P       -1.11464654       2.99387625       7.59295481       0.00000000 NULL
P        3.35399057      -1.00429387       4.61012315       0.00000000 NULL
10
Lattice="4.344385749612613 -0.35331002363690983 0.31471758887705165 -2.136611690203918 7.377651561180443 -0.7983174648943417 -0.7658923381074946 -4.010298967555842 8.886277815412285" Properties=species:S:1:pos:R:3:initial_magmoms:R:1:castep_labels:S:1 n_minim_iter=11 pbc="T T T"
P        0.24118521       4.84144860       2.65357354       0.00000000 NULL
P        2.10898868       0.74711856       3.41332540       0.00000000 NULL
P       -0.16817882       1.05906992       2.43519643       0.00000000 NULL
P        1.19689893       3.41224192       7.43571431       0.00000000 NULL
P       -0.51859040       4.37119634       4.75664040       0.00000000 NULL
P       -0.67873666      -2.15743507       6.21704678       0.00000000 NULL
P        2.77517956       0.85327815       0.90509782       0.00000000 NULL
P        1.15911137       2.80752883       2.39796690       0.00000000 NULL
P       -1.10579088       2.93917237       7.59712765       0.00000000 NULL
P        3.35265109      -1.01614271       4.62144645       0.00000000 NULL
10
Lattice="4.326688749876215 -0.3463364635069576 0.3149781916419012 -2.118824219696674 7.3449743210589675 -0.8388165666646288 -0.7641518578744873 -4.044251446879454 8.926488527566066" Properties=species:S:1:pos:R:3:initial_magmoms:R:1:castep_labels:S:1 n_minim_iter=12 pbc="T T T"
P        0.23201087       4.80202369       2.63324676       0.00000000 NULL
P        2.09978463       0.73176062       3.42678299       0.00000000 NULL
P       -0.16156821       1.03957712       2.42604963       0.00000000 NULL
P        1.20341472       3.35502660       7.42725866       0.00000000 NULL
P       -0.51018485       4.32168286       4.73526806       0.00000000 NULL
P       -0.67503975      -2.18375564       6.24279819       0.00000000 NULL
P        2.76713403       0.86070177       0.90376840       0.00000000 NULL
P        1.16643965       2.78199926       2.38735164       0.00000000 NULL
P       -1.09559861       2.86571611       7.60263212       0.00000000 NULL
P        3.34467515      -1.02879050       4.63297030       0.00000000 NULL
10
Lattice="4.308689107080444 -0.3365957188324364 0.3122545789481403 -2.0963863251083255 7.318744853028468 -0.8713370622545261 -0.769913290687431 -4.074930496578248 8.958963698738824" Properties=species:S:1:pos:R:3:initial_magmoms:R:1:castep_labels:S:1 n_minim_iter=13 pbc="T T T"
P        0.22698789       4.77174967       2.61540784       0.00000000 NULL
P        2.09038776       0.72085136       3.43661796       0.00000000 NULL
P       -0.15712747       1.02329811       2.41810596       0.00000000 NULL
P        1.20660407       3.31053161       7.41666412       0.00000000 NULL
P       -0.50212285       4.28143337       4.71700677       0.00000000 NULL
P       -0.67636838      -2.20719383       6.26369426       0.00000000 NULL
P        2.75852225       0.86970470       0.89943379       0.00000000 NULL
P        1.17299446       2.76289580       2.37706061       0.00000000 NULL
P       -1.08754105       2.80467610       7.60716931       0.00000000 NULL
P        3.33268312      -1.03667478       4.63974612       0.00000000 NULL
10
Lattice="4.290703946302257 -0.3246359299611592 0.30857371177982285 -2.070311342343855 7.2941119577770674 -0.9043994022736201 -0.779138757612916 -4.1085410119617585 8.995205829114106" Properties=species:S:1:pos:R:3:initial_magmoms:R:1:castep_labels:S:1 n_minim_iter=14 pbc="T T T"
P        0.22416592       4.74330090       2.59797536       0.00000000 NULL
P        2.08147916       0.71062649       3.44785459       0.00000000 NULL
P       -0.15296980       1.00685344       2.41101138       0.00000000 NULL
P        1.21011403       3.26759745       7.40704571       0.00000000 NULL
P       -0.49297022       4.24166169       4.70022260       0.00000000 NULL
P       -0.67979997      -2.23238203       6.28731220       0.00000000 NULL
P        2.75003047       0.88066309       0.89367691       0.00000000 NULL
P        1.18068157       2.74494938       2.36696806       0.00000000 NULL
P       -1.07908743       2.74300180       7.61497748       0.00000000 NULL
P        3.31963024      -1.04365568       4.64753203       0.00000000 NULL
10
Lattice="4.269398320609296 -0.31144747061390715 0.30365692399841954 -2.041029851175595 7.269324711339534 -0.9370601327878478 -0.7903458387945278 -4.142787799463714 9.02975478074812" Properties=species:S:1:pos:R:3:initial_magmoms:R:1:castep_labels:S:1 n_minim_iter=15 pbc="T T T"
P        0.22194246       4.71540473       2.57983513       0.00000000 NULL
P        2.07108211       0.70063349       3.45845321       0.00000000 NULL
P       -0.14931390       0.99030728       2.40336327       0.00000000 NULL
P        1.21175280       3.22562508       7.39428109       0.00000000 NULL
P       -0.48365061       4.20167279       4.68233967       0.00000000 NULL
P       -0.68444047      -2.25784257       6.30985760       0.00000000 NULL
P        2.73923621       0.89271145       0.88596584       0.00000000 NULL
P        1.18759700       2.72709870       2.35586278       0.00000000 NULL
P       -1.07047096       2.68089716       7.62170704       0.00000000 NULL
P        3.30294735      -1.04986226       4.65339192       0.00000000 NULL
10
Lattice="4.249377468055279 -0.2975514547072985 0.29864787535096793 -2.0110473616239557 7.25038068086265 -0.9700114466408389 -0.8027409031175023 -4.180496181962108 9.070335749956373" Properties=species:S:1:pos:R:3:initial_magmoms:R:1:castep_labels:S:1 n_minim_iter=16 pbc="T T T"
P        0.22085190       4.69201441       2.56366142       0.00000000 NULL
P        2.06188786       0.69146737       3.47217223       0.00000000 NULL
P       -0.14582692       0.97456362       2.39738849       0.00000000 NULL
P        1.21402247       3.18754474       7.38560328       0.00000000 NULL
P       -0.47400720       4.16511057       4.66786685       0.00000000 NULL
P       -0.68985041      -2.28495711       6.33681656       0.00000000 NULL
P        2.72918922       0.90659379       0.87777797       0.00000000 NULL
P        1.19534133       2.71159622       2.34636477       0.00000000 NULL
P       -1.06164931       2.62090941       7.63420312       0.00000000 NULL
P        3.28697976      -1.05604679       4.66217425       0.00000000 NULL
10
Lattice="4.223536353354569 -0.28366128682479297 0.2922745999398825 -1.9789889302200019 7.229566927706073 -1.0007473826577282 -0.8154822073074708 -4.215392469232953 9.104691510089177" Properties=species:S:1:pos:R:3:initial_magmoms:R:1:castep_labels:S:1 n_minim_iter=17 pbc="T T T"
P        0.21873608       4.66816376       2.54683765       0.00000000 NULL
P        2.04959544       0.68238885       3.48396106       0.00000000 NULL
P       -0.14306769       0.95907169       2.38997663       0.00000000 NULL
P        1.21242797       3.15065612       7.37154026       0.00000000 NULL
P       -0.46528607       4.12820458       4.65118990       0.00000000 NULL
P       -0.69549829      -2.31002562       6.35966336       0.00000000 NULL
P        2.71495036       0.92061652       0.86749722       0.00000000 NULL
P        1.20049892       2.69538436       2.33557689       0.00000000 NULL
P       -1.05309014       2.56173954       7.64293030       0.00000000 NULL
P        3.26549060      -1.06119974       4.66682526       0.00000000 NULL
10
Lattice="4.202678239646376 -0.2700599942763426 0.2865637918915726 -1.9491901804792378 7.21973346844301 -1.0316669451203322 -0.8286348943823505 -4.255178391303829 9.151282381812734" Properties=species:S:1:pos:R:3:initial_magmoms:R:1:castep_labels:S:1 n_minim_iter=18 pbc="T T T"
P        0.21741303       4.65221403       2.53464136       0.00000000 NULL
P        2.04033972       0.67467552       3.50198533       0.00000000 NULL
P       -0.14045143       0.94532975       2.38612358       0.00000000 NULL
P        1.21264180       3.12053156       7.36793288       0.00000000 NULL
P       -0.45687845       4.09814138       4.64208596       0.00000000 NULL
P       -0.70154327      -2.33721054       6.39139910       0.00000000 NULL
P        2.70376827       0.93677369       0.85792221       0.00000000 NULL
P        1.20721779       2.68347237       2.32886064       0.00000000 NULL
P       -1.04500094       2.50760119       7.66347578       0.00000000 NULL
P        3.24806789      -1.06697618       4.67820408       0.00000000 NULL
10
Lattice="4.170392638923136 -0.25725186282639795 0.27856674634738166 -1.9165985584421141 7.201888930883597 -1.0578465205405154 -0.8411474858681643 -4.286407657581735 9.181449629292072" Properties=species:S:1:pos:R:3:initial_magmoms:R:1:castep_labels:S:1 n_minim_iter=19 pbc="T T T"
P        0.21327309       4.63191343       2.52009406       0.00000000 NULL
P        2.02451232       0.66666127       3.51399201       0.00000000 NULL
P       -0.13901057       0.93154884       2.37837761       0.00000000 NULL
P        1.20537946       3.08983691       7.35177322       0.00000000 NULL
P       -0.45047865       4.06508063       4.62660508       0.00000000 NULL
P       -0.70719501      -2.35887421       6.41196811       0.00000000 NULL
P        2.68449968       0.95154392       0.84513450       0.00000000 NULL
P        1.20842483       2.66862829       2.31883432       0.00000000 NULL
P       -1.03758831       2.45396353       7.67268944       0.00000000 NULL
P        3.22023209      -1.07075174       4.67976169       0.00000000 NULL
10
Lattice="4.151600453925785 -0.24526728344156237 0.272952734391337 -1.8901937089299616 7.204861855043206 -1.0864183349493401 -0.8536562115884802 -4.328601199516706 9.238799098035312" Properties=species:S:1:pos:R:3:initial_magmoms:R:1:castep_labels:S:1 n_minim_iter=20 pbc="T T T"
P        0.21101488       4.62561798       2.51427632       0.00000000 NULL
P        2.01651489       0.66075434       3.53879061       0.00000000 NULL
P       -0.13726519       0.92050694       2.37808520       0.00000000 NULL
P        1.20428181       3.06970028       7.35873318       0.00000000 NULL
P       -0.44407916       4.04407131       4.62634916       0.00000000 NULL
P       -0.71307744      -2.38590772       6.45194387       0.00000000 NULL
P        2.67396887       0.96972710       0.83529133       0.00000000 NULL
P        1.21427902       2.66178447       2.31717563       0.00000000 NULL
P       -1.03080104       2.40822760       7.70620755       0.00000000 NULL
P        3.20418368      -1.07681045       4.69684829       0.00000000 NULL
10
Lattice="4.143309010438392 -0.24323383271563925 0.2711430559424378 -1.8838850348050111 7.20040671928042 -1.090186670630733 -0.8554610835982976 -4.332586515644109 9.241921478118305" Properties=species:S:1:pos:R:3:initial_magmoms:R:1:castep_labels:S:1 n_minim_iter=21 pbc="T T T"
P        0.20956620       4.62130664       2.51164104       0.00000000 NULL
P        2.01234434       0.65925159       3.54047338       0.00000000 NULL
P       -0.13723578       0.91803020       2.37609019       0.00000000 NULL
P        1.20145185       3.06432702       7.35407480       0.00000000 NULL
P       -0.44335892       4.03764739       4.62285954       0.00000000 NULL
P       -0.71378681      -2.38861344       6.45415237       0.00000000 NULL
P        2.66871946       0.97226842       0.83231814       0.00000000 NULL
P        1.21331426       2.65859836       2.31511477       0.00000000 NULL
P       -1.02942577       2.39871949       7.70666632       0.00000000 NULL
P        3.19704555      -1.07712692       4.69570075       0.00000000 NULL
10
Lattice="4.132227983994042 -0.2400480989230809 0.2686299975421451 -1.8746854602855896 7.196005905051926 -1.0967103103676112 -0.8584047810088762 -4.340596046584443 9.250674535777634" Properties=species:S:1:pos:R:3:initial_magmoms:R:1:castep_labels:S:1 n_minim_iter=22 pbc="T T T"
P        0.20762673       4.61618838       2.50848203       0.00000000 NULL
P        2.00690888       0.65709495       3.54479259       0.00000000 NULL
P       -0.13710456       0.91438378       2.37392369       0.00000000 NULL
P        1.19799770       3.05692605       7.34979715       0.00000000 NULL
P       -0.44212229       4.02888766       4.61926446       0.00000000 NULL
P       -0.71499224      -2.39381253       6.46033383       0.00000000 NULL
P        2.66177159       0.97672612       0.82806956       0.00000000 NULL
P        1.21256638       2.65455867       2.31288950       0.00000000 NULL
P       -1.02731035       2.38442343       7.71057182       0.00000000 NULL
P        3.18753259      -1.07800475       4.69604950       0.00000000 NULL
10
Lattice="4.12983704675343 -0.2392625989438893 0.26806835156513886 -1.8725394318483861 7.195468134697595 -1.0984520532810953 -0.8591506070258297 -4.342951751454596 9.2536684545661" Properties=species:S:1:pos:R:3:initial_magmoms:R:1:castep_labels:S:1 n_minim_iter=23 pbc="T T T"
P        0.20719916       4.61527099       2.50791308       0.00000000 NULL
P        2.00577025       0.65660319       3.54623376       0.00000000 NULL
P       -0.13705852       0.91352832       2.37358540       0.00000000 NULL
P        1.19732042       3.05531786       7.34937208       0.00000000 NULL
P       -0.44180077       4.02699240       4.61877394       0.00000000 NULL
P       -0.71530440      -2.39529481       6.46245035       0.00000000 NULL
P        2.66028425       0.97793973       0.82708913       0.00000000 NULL
P        1.21252246       2.65375869       2.31255591       0.00000000 NULL
P       -1.02678988       2.38100640       7.71223205       0.00000000 NULL
P        3.18548821      -1.07830228       4.69658631       0.00000000 NULL
10
Lattice="4.098866770974196 -0.22905785047928326 0.26076385606353464 -1.8446922429699695 7.189066431776161 -1.121308269833017 -0.8688885276549674 -4.374087450596355 9.293662052737359" Properties=species:S:1:pos:R:3:initial_magmoms:R:1:castep_labels:S:1 n_minim_iter=24 pbc="T T T"
P        0.20165287       4.60363503       2.50076928       0.00000000 NULL
P        1.99101732       0.65015475       3.56552997       0.00000000 NULL
P       -0.13647563       0.90243062       2.36934221       0.00000000 NULL
P        1.18853544       3.03462248       7.34441884       0.00000000 NULL
P       -0.43765210       4.00254401       4.61280774       0.00000000 NULL
P       -0.71938768      -2.41481999       6.49073153       0.00000000 NULL
P        2.64103938       0.99391921       0.81423770       0.00000000 NULL
P        1.21195638       2.64352371       2.30845068       0.00000000 NULL
P       -1.02008337       2.33650451       7.73477081       0.00000000 NULL
P        3.15898910      -1.08228521       4.70402459       0.00000000 NULL
10
Lattice="4.070180071108914 -0.22009126035833507 0.25412731593327037 -1.8196955932209304 7.189867677182128 -1.1437168537827411 -0.8772991983385876 -4.40713381153411 9.340060265056094" Properties=species:S:1:pos:R:3:initial_magmoms:R:1:castep_labels:S:1 n_minim_iter=25 pbc="T T T"
P        0.19563207       4.59690655       2.49684945       0.00000000 NULL
P        1.97761472       0.64446167       3.58851565       0.00000000 NULL
P       -0.13613110       0.89253235       2.36699090       0.00000000 NULL
P        1.18005946       3.01848957       7.34572497       0.00000000 NULL
P       -0.43435878       3.98273012       4.61146057       0.00000000 NULL
P       -0.72272963      -2.43457321       6.52378391       0.00000000 NULL
P        2.62297882       1.01055347       0.80186609       0.00000000 NULL
P        1.21126613       2.63611025       2.30719680       0.00000000 NULL
P       -1.01372025       2.29614641       7.76424686       0.00000000 NULL
P        3.13470971      -1.08702969       4.71530998       0.00000000 NULL
10
Lattice="4.035553623964116 -0.2123944534822549 0.24694276468775267 -1.7946547753292716 7.187524589182974 -1.1630361178158528 -0.883542020523762 -4.434784392203062 9.376516609424167" Properties=species:S:1:pos:R:3:initial_magmoms:R:1:castep_labels:S:1 n_minim_iter=26 pbc="T T T"
P        0.18783754       4.58850849       2.49223448       0.00000000 NULL
P        1.96095131       0.63881898       3.60826306       0.00000000 NULL
P       -0.13631003       0.88290115       2.36239493       0.00000000 NULL
P        1.16792857       3.00301643       7.34055646       0.00000000 NULL
P       -0.43222648       3.96234006       4.60686384       0.00000000 NULL
P       -0.72467239      -2.45044437       6.55012409       0.00000000 NULL
P        2.60061254       1.02598059       0.78825012       0.00000000 NULL
P        1.20716279       2.62779099       2.30471227       0.00000000 NULL
P       -1.00724149       2.25769021       7.78733582       0.00000000 NULL
P        3.10560713      -1.09090228       4.72146697       0.00000000 NULL
10
Lattice="4.03151279855886 -0.21144443724475623 0.24612349977141487 -1.7916475196641721 7.189125048961886 -1.1660697437918777 -0.8842747695654537 -4.439777905437126 9.383782370028527" Properties=species:S:1:pos:R:3:initial_magmoms:R:1:castep_labels:S:1 n_minim_iter=27 pbc="T T T"
P        0.18674854       4.58853826       2.49219364       0.00000000 NULL
P        1.95910973       0.63818120       3.61205421       0.00000000 NULL
P       -0.13631903       0.88173236       2.36223292       0.00000000 NULL
P        1.16659553       3.00168673       7.34146700       0.00000000 NULL
P       -0.43197011       3.96046268       4.60726245       0.00000000 NULL
P       -0.72486271      -2.45318449       6.55536357       0.00000000 NULL
P        2.59797873       1.02845916       0.78650668       0.00000000 NULL
P        1.20683674       2.62732598       2.30498351       0.00000000 NULL
P       -1.00632977       2.25285716       7.79244387       0.00000000 NULL
P        3.10230535      -1.09174790       4.72352501       0.00000000 NULL
10
Lattice="4.020817380696449 -0.20912823059864494 0.244005463631167 -1.7840133356987544 7.1924313897045264 -1.1733729418106071 -0.8859698883926074 -4.451619538720769 9.400646284078872" Properties=species:S:1:pos:R:3:initial_magmoms:R:1:castep_labels:S:1 n_minim_iter=28 pbc="T T T"
P        0.18392020       4.58818595       2.49186621       0.00000000 NULL
P        1.95417197       0.63655009       3.62101480       0.00000000 NULL
P       -0.13637263       0.87878010       2.36152539       0.00000000 NULL
P        1.16294693       2.99818559       7.34282295       0.00000000 NULL
P       -0.43138522       3.95547583       4.60772220       0.00000000 NULL
P       -0.72524680      -2.45963818       6.56755721       0.00000000 NULL
P        2.59098643       1.03448516       0.78202574       0.00000000 NULL
P        1.20572469       2.62593297       2.30540452       0.00000000 NULL
P       -1.00402948       2.24076810       7.80423201       0.00000000 NULL
P        3.09355037      -1.09373437       4.72799023       0.00000000 NULL
10
Lattice="4.004381023006292 -0.20606400521809778 0.2408977941863748 -1.773094257053088 7.195773798247449 -1.1830293480656837 -0.8879253941331579 -4.466922702121637 9.421475969343698" Properties=species:S:1:pos:R:3:initial_magmoms:R:1:castep_labels:S:1 n_minim_iter=29 pbc="T T T"
P        0.17964183       4.58687750       2.49093313       0.00000000 NULL
P        1.94646499       0.63419190       3.63250865       0.00000000 NULL
P       -0.13652029       0.87458023       2.35983223       0.00000000 NULL
P        1.15707564       2.99298259       7.34266848       0.00000000 NULL
P       -0.43071757       3.94792157       4.60716933       0.00000000 NULL
P       -0.72550108      -2.46782795       6.58270812       0.00000000 NULL
P        2.58017550       1.04260005       0.77544029       0.00000000 NULL
P        1.20343747       2.62354305       2.30545798       0.00000000 NULL
P       -1.00071127       2.22385546       7.81866146       0.00000000 NULL
P        3.08010303      -1.09629477       4.73277738       0.00000000 NULL
10
Lattice="3.903242928297857 -0.18903609525848133 0.22253601362152922 -1.7089048947653807 7.219914719398918 -1.2414087827380116 -0.8971610619207848 -4.560291741504408 9.545619104855787" Properties=species:S:1:pos:R:3:initial_magmoms:R:1:castep_labels:S:1 n_minim_iter=30 pbc="T T T"
P        0.15288586       4.58077405       2.48570170       0.00000000 NULL
P        1.89892602       0.61969679       3.70250406       0.00000000 NULL
P       -0.13754443       0.84964341       2.34833741       0.00000000 NULL
P        1.12043932       2.96376746       7.33934820       0.00000000 NULL
P       -0.42744435       3.90396550       4.60276052       0.00000000 NULL
P       -0.72541156      -2.51673904       6.67323986       0.00000000 NULL
P        2.51339420       1.09204665       0.73453225       0.00000000 NULL
P        1.18754111       2.61033316       2.30609892       0.00000000 NULL
P       -0.98054323       2.12319575       7.90566297       0.00000000 NULL
P        2.99790486      -1.11271190       4.76087619       0.00000000 NULL
10
Lattice="3.6829622985809376 -0.19341789316290844 0.22149924817766353 -1.6371651809084435 7.353724617437363 -1.3601474263435456 -0.8137977671874019 -4.753956711405547 9.685407845742406" Properties=species:S:1:pos:R:3:initial_magmoms:R:1:castep_labels:S:1 n_minim_iter=31 pbc="T T T"
P        0.08110160       4.61657988       2.45961551       0.00000000 NULL
P        1.81361047       0.59340069       3.81739725       0.00000000 NULL
P       -0.13114556       0.81265614       2.29692431       0.00000000 NULL
P        1.06324208       2.94674629       7.26449800       0.00000000 NULL
P       -0.41805544       3.86627274       4.54107209       0.00000000 NULL
P       -0.65944121      -2.60144752       6.77915164       0.00000000 NULL
P        2.36081926       1.18088392       0.66536934       0.00000000 NULL
P        1.13639436       2.61147295       2.30115109       0.00000000 NULL
P       -0.89995269       1.97986158       7.99526517       0.00000000 NULL
P        2.85622225      -1.17045379       4.79571323       0.00000000 NULL
