16
Lattice="5.024083934145909 0.0 0.0 0.0 5.075776384986073 0.0 0.0 0.0 10.140321867095244" Properties=species:S:1:pos:R:3:initial_magmoms:R:1:castep_labels:S:1:forces:R:3 n_minim_iter=13 energy=-89.427369149079 stress="-0.00039417669004543555 0.0 0.0 0.0 -4.574816288862457e-05 0.0 0.0 0.0 0.0005013735687667096" free_energy=-89.427369149079 pbc="T T T"
P        3.80236558       2.64500484       6.22975358       0.00000000 NULL       0.00046500      -0.00156700      -0.00811700
P        3.80236558       2.43077154       3.91056829       0.00000000 NULL       0.00046500       0.00156700       0.00811700
P        3.80236558       0.10711665       3.91056829       0.00000000 NULL       0.00046500      -0.00156600       0.00811700
P        3.80236558       4.96865974       6.22975358       0.00000000 NULL       0.00046500       0.00156600      -0.00811700
P        1.28934476       5.18320047       8.98083482       0.00000000 NULL      -0.00442100      -0.00696700       0.00390100
P        1.28934476      -0.10742408       1.15948705       0.00000000 NULL      -0.00442100       0.00696700      -0.00390100
P        1.28934476       2.64531227       1.15948705       0.00000000 NULL      -0.00442100      -0.00696800      -0.00390100
P        1.28934476       2.43046411       8.98083482       0.00000000 NULL      -0.00442100       0.00696800       0.00390100
P        1.17323240       4.96878063       6.22964862       0.00000000 NULL      -0.00240600       0.00136900      -0.00696700
P        1.17323240       0.10699575       3.91067325       0.00000000 NULL      -0.00240600      -0.00136900       0.00696700
P        1.17323240       2.43089244       3.91067325       0.00000000 NULL      -0.00240600       0.00137000       0.00696700
P        1.17323240       2.64488395       6.22964862       0.00000000 NULL      -0.00240600      -0.00137000      -0.00696700
P        3.67889113       2.64432804       1.15972171       0.00000000 NULL       0.00636300       0.00009600      -0.00607100
P        3.67889113       2.43144835       8.98060016       0.00000000 NULL       0.00636300      -0.00009600       0.00607100
P        3.67889113       0.10643984       8.98060016       0.00000000 NULL       0.00636300       0.00009700       0.00607100
P        3.67889113       4.96933654       1.15972171       0.00000000 NULL       0.00636300      -0.00009700      -0.00607100
