8
Lattice="5.050807840130455 -1.255362872941194e-16 0.0 -2.5254039200652274 5.045473731188621 0.0 0.0 0.0 5.019001436936611" Properties=species:S:1:pos:R:3:initial_magmoms:R:1:castep_labels:S:1:forces:R:3 n_minim_iter=12 energy=-44.707594279516 stress="0.0006224256900974668 0.0 -0.0 0.0 -8.084262825785463e-05 0.0 -0.0 0.0 -0.0003023389201867736" free_energy=-44.707594279516 pbc="T T T"
P        3.88250763       1.16869942       2.44926951       0.00000000 NULL       0.00323000       0.00067600       0.00601500
P       -1.35710371       3.87677433       2.44926951       0.00000000 NULL      -0.00323000      -0.00067600       0.00601500
P        1.35710371       3.87677433       2.56973192       0.00000000 NULL       0.00323000      -0.00067600      -0.00601500
P        1.16830022       1.16869942       2.56973192       0.00000000 NULL      -0.00323000       0.00067600      -0.00601500
P        1.16208600       1.35928663       4.93340697       0.00000000 NULL       0.00143100      -0.00248400       0.00236100
P        1.36331793       3.68618712       4.93340697       0.00000000 NULL      -0.00143100       0.00248400       0.00236100
P       -1.36331792       3.68618712       0.08559447       0.00000000 NULL       0.00143100       0.00248400      -0.00236100
P        3.88872185       1.35928663       0.08559447       0.00000000 NULL      -0.00143100      -0.00248400      -0.00236100
