64
Lattice="7.535029650105548 0.0 0.0 0.0 14.116132440467855 0.0 0.0 0.0 11.695412160644764" Properties=species:S:1:pos:R:3:initial_magmoms:R:1:castep_labels:S:1:forces:R:3 n_minim_iter=5 energy=-344.152346465915 stress="2.170438787853973e-06 0.0 0.0 0.0 2.508062599297924e-06 0.0 0.0 0.0 -2.7090291537288477e-06" free_energy=-344.152346465915 pbc="T T T"
P        1.82218663       4.16579108       7.44274711       0.00000000 NULL       0.00026800       0.00092800      -0.00213300
P        1.82218663       9.95034136       4.25266505       0.00000000 NULL       0.00026800      -0.00092800       0.00213300
P        1.82218663      11.22385730      10.10037113       0.00000000 NULL       0.00026800       0.00092800       0.00213200
P        1.82218663       2.89227514       1.59504103       0.00000000 NULL       0.00026800      -0.00092800      -0.00213200
P        0.93519703      12.86288603      11.36634654       0.00000000 NULL      -0.00683000       0.00301100       0.00154400
P        0.93519703       1.25324641       0.32906562       0.00000000 NULL      -0.00683000      -0.00301100      -0.00154400
P        0.93519703       5.80481981       6.17677170       0.00000000 NULL      -0.00682900       0.00301100      -0.00154500
P        0.93519703       8.31131263       5.51864046       0.00000000 NULL      -0.00682900      -0.00301100       0.00154500
P        2.88796948       6.06002790       5.14287985       0.00000000 NULL       0.00354800       0.00456100      -0.00363200
P        2.88796948       8.05610454       6.55253231       0.00000000 NULL       0.00354800      -0.00456100       0.00363200
P        2.88796948      13.11809412      12.40023839       0.00000000 NULL       0.00354800       0.00456100       0.00363300
P        2.88796948       0.99803832      -0.70482623       0.00000000 NULL       0.00354800      -0.00456100      -0.00363300
P        5.86401339       5.94036210       9.57777579       0.00000000 NULL       0.00243900       0.00583800      -0.00180400
P        5.86401339       8.17577034       2.11763637       0.00000000 NULL       0.00243900      -0.00583800       0.00180400
P        5.86401339      12.99842832       7.96534245       0.00000000 NULL       0.00243900       0.00583500       0.00180300
P        5.86401339       1.11770412       3.73006971       0.00000000 NULL       0.00243900      -0.00583500      -0.00180300
P       -0.10394518       0.36705605       8.69069110       0.00000000 NULL      -0.00217600       0.00013200      -0.00754400
P       -0.10394518      13.74907639       3.00472106       0.00000000 NULL      -0.00217600      -0.00013200       0.00754400
P       -0.10394518       7.42512227       8.85242714       0.00000000 NULL      -0.00217700       0.00013100       0.00754500
P       -0.10394518       6.69101017       2.84298502       0.00000000 NULL      -0.00217700      -0.00013100      -0.00754500
P        2.02071830       7.36124257       9.87292704       0.00000000 NULL       0.00279200       0.00109900       0.00060100
P        2.02071830       6.75488987       1.82248512       0.00000000 NULL       0.00279200      -0.00109900      -0.00060100
P        2.02071830       0.30317635       7.67019120       0.00000000 NULL       0.00279100       0.00110100      -0.00060100
P        2.02071830      13.81295609       4.02522096       0.00000000 NULL       0.00279100      -0.00110100       0.00060100
P       -0.08624857      11.22907380       0.85598164       0.00000000 NULL       0.00171100      -0.00540100       0.00776600
P       -0.08624857       2.88705864      10.83943052       0.00000000 NULL       0.00171100       0.00540100      -0.00776600
P       -0.08624857       4.17100758       4.99172444       0.00000000 NULL       0.00171100      -0.00540100      -0.00776500
P       -0.08624857       9.94512486       6.70368772       0.00000000 NULL       0.00171100       0.00540100       0.00776500
P        4.92842239       0.77040562       6.96212707       0.00000000 NULL       0.00335500       0.00258100      -0.00028600
P        4.92842239      13.34572682       4.73328509       0.00000000 NULL       0.00335500      -0.00258100       0.00028600
P        4.92842239       7.82847184      10.58099117       0.00000000 NULL       0.00335500       0.00257900       0.00028600
P        4.92842239       6.28766060       1.11442099       0.00000000 NULL       0.00335500      -0.00257900      -0.00028600
P        7.08113070       1.37806086       6.66049568       0.00000000 NULL       0.00004600      -0.00478000       0.00132700
P        7.08113070      12.73807158       5.03491648       0.00000000 NULL       0.00004600       0.00478000      -0.00132700
P        7.08113070       8.43612708      10.88262256       0.00000000 NULL       0.00004600      -0.00478100      -0.00132700
P        7.08113070       5.68000536       0.81278960       0.00000000 NULL       0.00004600       0.00478100       0.00132700
P        4.71673675       2.39531221       8.60008991       0.00000000 NULL      -0.00028400       0.00076600       0.00148700
P        4.71673675      11.72082023       3.09532225       0.00000000 NULL      -0.00028400      -0.00076600      -0.00148700
P        4.71673675       9.45337843       8.94302833       0.00000000 NULL      -0.00028400       0.00076600      -0.00148700
P        4.71673675       4.66275401       2.75238383       0.00000000 NULL      -0.00028400      -0.00076600       0.00148700
P        6.94672791      10.56860535       4.58130993       0.00000000 NULL      -0.00066200      -0.00300900       0.00211800
P        6.94672791       3.54752709       7.11410223       0.00000000 NULL      -0.00066200       0.00300900      -0.00211800
P        6.94672791       3.51053913       1.26639615       0.00000000 NULL      -0.00066200      -0.00300900      -0.00211800
P        6.94672791      10.60559331      10.42901601       0.00000000 NULL      -0.00066200       0.00300900       0.00211800
P        2.56539117      12.12468639       2.65729639       0.00000000 NULL      -0.00545600       0.00073200       0.00403900
P        2.56539117       1.99144605       9.03811577       0.00000000 NULL      -0.00545600      -0.00073200      -0.00403900
P        2.56539117       5.06662017       3.19040969       0.00000000 NULL      -0.00545600       0.00073200      -0.00403900
P        2.56539117       9.04951227       8.50500247       0.00000000 NULL      -0.00545600      -0.00073200       0.00403900
P        3.89424925      11.48693795      11.18112266       0.00000000 NULL       0.00275700       0.00474100       0.00160800
P        3.89424925       2.62919449       0.51428950       0.00000000 NULL       0.00275700      -0.00474100      -0.00160800
P        3.89424925       4.42887173       6.36199558       0.00000000 NULL       0.00275600       0.00474100      -0.00160800
P        3.89424925       9.68726071       5.33341658       0.00000000 NULL       0.00275600      -0.00474100       0.00160800
P        2.70245544       5.35025700       9.22002703       0.00000000 NULL       0.00105000       0.00191600      -0.00191800
P        2.70245544       8.76587545       2.47538513       0.00000000 NULL       0.00105000      -0.00191600       0.00191700
P        2.70245544      -1.70780922       8.32309121       0.00000000 NULL       0.00105000       0.00191300       0.00191800
P        2.70245544      15.82394167       3.37232095       0.00000000 NULL       0.00105000      -0.00191300      -0.00191800
P        4.35667791       1.03931063       2.07809293       0.00000000 NULL      -0.00165800      -0.00765800      -0.00015800
P        4.35667791      13.07682181       9.61731923       0.00000000 NULL      -0.00165800       0.00765800       0.00015800
P        4.35667791       8.09737685       3.76961315       0.00000000 NULL      -0.00165800      -0.00765900       0.00015800
P        4.35667791       6.01875559       7.92579901       0.00000000 NULL      -0.00165800       0.00765900      -0.00015800
P        5.88907712      12.72806523       1.46670585       0.00000000 NULL      -0.00089800      -0.00251800       0.00629400
P        5.88907712       1.38806721      10.22870631       0.00000000 NULL      -0.00089800       0.00251800      -0.00629400
P        5.88907712       5.66999901       4.38100023       0.00000000 NULL      -0.00089800      -0.00251700      -0.00629400
P        5.88907712       8.44613343       7.31441193       0.00000000 NULL      -0.00089800       0.00251700       0.00629400
