32
Lattice="6.828469164267191 0.0 0.0 0.0 9.818298596043421 0.0 0.0 0.0 10.032210781531187" Properties=species:S:1:pos:R:3:initial_magmoms:R:1:castep_labels:S:1:forces:R:3 n_minim_iter=5 energy=-173.179883350714 stress="-2.1260808898860823e-06 -0.0 -0.0 -0.0 -4.698192735692321e-06 0.0 -0.0 0.0 7.850144824194764e-06" free_energy=-173.179883350714 pbc="T T T"
P        2.21878990       4.19304902       6.57834580       0.00000000 NULL      -0.00512200      -0.00123900       0.00276300
P        4.60967927       5.62524957      11.59445119       0.00000000 NULL       0.00512200       0.00124000       0.00276300
P        1.19544469       9.10219832       6.57834580       0.00000000 NULL       0.00512200      -0.00123700       0.00276300
P        5.63302448       0.71610027      11.59445119       0.00000000 NULL      -0.00512200       0.00123700       0.00276300
P        1.11292355       1.96742767       8.64053745       0.00000000 NULL      -0.00056400      -0.00394100       0.00384900
P        5.71554561       7.85087092       3.62443206       0.00000000 NULL       0.00056400       0.00394100       0.00384900
P        2.30131103       6.87657697       8.64053745       0.00000000 NULL       0.00056500      -0.00394100       0.00384900
P        4.52715813       2.94172162       3.62443206       0.00000000 NULL      -0.00056500       0.00394100       0.00384900
P        2.76287203       2.00337437       7.10930474       0.00000000 NULL       0.00104800       0.00227000      -0.00173100
P        4.06559713       7.81492423       2.09319935       0.00000000 NULL      -0.00104800      -0.00227000      -0.00173100
P        0.65136255       6.91252367       7.10930474       0.00000000 NULL      -0.00104800       0.00227100      -0.00173100
P        6.17710662       2.90577493       2.09319935       0.00000000 NULL       0.00104800      -0.00227100      -0.00173100
P        6.48479090       0.51480226       7.69567482       0.00000000 NULL       0.00828400       0.00110200      -0.00228000
P        0.34367826       9.30349634       2.67956943       0.00000000 NULL      -0.00828400      -0.00110200      -0.00228000
P        3.75791285       5.42395156       7.69567482       0.00000000 NULL      -0.00828400       0.00110300      -0.00227900
P        3.07055632       4.39434704       2.67956943       0.00000000 NULL       0.00828400      -0.00110300      -0.00227900
P        2.92807990       8.96238078       8.00467662       0.00000000 NULL      -0.00404800       0.00140500       0.00302900
P        3.90038926       0.85591782       2.98857123       0.00000000 NULL       0.00404800      -0.00140500       0.00302900
P        0.48615468       4.05323148       8.00467662       0.00000000 NULL       0.00404900       0.00140500       0.00302900
P        6.34231448       5.76506711       2.98857123       0.00000000 NULL      -0.00404900      -0.00140500       0.00302900
P       -0.54242464       1.60217570       5.76953406       0.00000000 NULL       0.00371200       0.00269600      -0.00133200
P        7.37089381       8.21612290       0.75342867       0.00000000 NULL      -0.00371200      -0.00269600      -0.00133200
P        3.95665922       6.51132500       5.76953406       0.00000000 NULL      -0.00371300       0.00269700      -0.00133200
P        2.87180994       3.30697360       0.75342867       0.00000000 NULL       0.00371300      -0.00269700      -0.00133200
P        2.55338359       1.24182217       1.33740949       0.00000000 NULL       0.00300100       0.00470600      -0.00228100
P        4.27508558       8.57647643       6.35351488       0.00000000 NULL      -0.00300100      -0.00470600      -0.00228100
P        0.86085100       6.15097147       1.33740949       0.00000000 NULL      -0.00300000       0.00470700      -0.00228100
P        5.96761817       3.66732713       6.35351488       0.00000000 NULL       0.00300000      -0.00470700      -0.00228100
P        5.19161318       8.60320863       0.29856459       0.00000000 NULL      -0.00376000       0.00040500      -0.00201700
P        1.63685598       1.21508996       5.31466998       0.00000000 NULL       0.00376000      -0.00040500      -0.00201700
P        5.05109056       3.69405933       0.29856459       0.00000000 NULL       0.00375900       0.00040400      -0.00201700
P        1.77737860       6.12423926       5.31466998       0.00000000 NULL      -0.00375900      -0.00040400      -0.00201700
