12
Lattice="3.334799945990874 0.0 0.0 0.0 9.389456939612211 0.0 0.0 0.0 9.389456939612211" Properties=species:S:1:pos:R:3:initial_magmoms:R:1:castep_labels:S:1:forces:R:3 n_minim_iter=14 energy=-64.828610734967 stress="-1.6700548865665204e-05 -0.0 -0.0 -0.0 2.942153720733279e-05 0.0 -0.0 0.0 2.942153720733279e-05" free_energy=-64.828610734967 pbc="T T T"
P        3.11697235       2.71291255       1.45408788       0.00000000 NULL       0.00055100       0.00055800      -0.00085400
P        1.44957238       6.67654439       7.93536906       0.00000000 NULL       0.00055000      -0.00055800       0.00085400
P        2.28327237       1.45408788       6.67654439       0.00000000 NULL       0.00055100      -0.00085400      -0.00055800
P        0.61587239       7.93536906       2.71291255       0.00000000 NULL       0.00055000       0.00085400       0.00055800
P        2.31525344       9.02238734       5.36061225       0.00000000 NULL      -0.00045200       0.00077200      -0.00045900
P        0.64785347       0.36706960       4.02884469       0.00000000 NULL      -0.00045200      -0.00077200       0.00045900
P        1.48155346       5.36061225       0.36706960       0.00000000 NULL      -0.00045200      -0.00045900      -0.00077200
P       -0.18584652       4.02884469       9.02238734       0.00000000 NULL      -0.00045200       0.00045900       0.00077200
P        3.10193661       7.95814182      -0.63046146       0.00000000 NULL      -0.00009900       0.00185300       0.00080900
P        1.43453664       1.43131512      10.01991840       0.00000000 NULL      -0.00009900      -0.00185300      -0.00080900
P        2.26823662      -0.63046146       1.43131512       0.00000000 NULL      -0.00009900       0.00080900      -0.00185300
P        0.60083665      10.01991840       7.95814182       0.00000000 NULL      -0.00009900      -0.00080900       0.00185300
