18
Lattice="5.466440000000003 2.7673924380905003e-17 0.0 -2.7332200000000015 4.734075908263408 0.0 0.0 0.0 15.641699999999998" Properties=species:S:1:pos:R:3:initial_magmoms:R:1:castep_labels:S:1 n_minim_iter=1 pbc="T T T"
P       -2.26263249       4.32024335      15.16880292       0.00000000 NULL
P        0.12309548       0.61445749       4.74100292       0.00000000 NULL
P        2.13953619       4.53345145       9.95490292       0.00000000 NULL
P        3.18656909       2.32212720       1.86506625       0.00000000 NULL
P        1.86213404       1.59858666       7.07896625       0.00000000 NULL
P        3.15095606       0.81336252      12.29286625       0.00000000 NULL
P        1.62553832       2.50159649      10.51634506       0.00000000 NULL
P        2.48722446       0.15695971       0.08854506       0.00000000 NULL
P        4.08689640       2.07552018       5.30244506       0.00000000 NULL
P        0.41007948       0.22981998       6.74576311       0.00000000 NULL
P        5.06237005       0.24022973      11.95966311       0.00000000 NULL
P        2.72720966       4.26402667       1.53186311       0.00000000 NULL
P        2.78788686       1.32068646       9.29119483       0.00000000 NULL
P        2.92874827       1.75403809      14.50509483       0.00000000 NULL
P        2.48302405       1.65935183       4.07729483       0.00000000 NULL
P        3.11922938       2.77278708      11.85542630       0.00000000 NULL
P        1.50552099       1.31493882       1.42762630       0.00000000 NULL
P        3.57490881       0.64635048       6.64152630       0.00000000 NULL
18
Lattice="5.483048354178693 9.961469719173177e-16 0.0 -2.7415241770893473 4.748459164897204 0.0 0.0 0.0 15.677148812079412" Properties=species:S:1:pos:R:3:initial_magmoms:R:1:castep_labels:S:1 n_minim_iter=2 pbc="T T T"
P       -2.26956541       4.33326724      15.20286581       0.00000000 NULL
P        0.12358710       0.61632472       4.75143326       0.00000000 NULL
P        2.14597749       4.54732684       9.97714953       0.00000000 NULL
P        3.19661399       2.32913332       1.86957836       0.00000000 NULL
P        1.86765246       1.60378274       7.09529464       0.00000000 NULL
P        3.16030526       0.81554358      12.32101091       0.00000000 NULL
P        1.63011233       2.50918079      10.54002762       0.00000000 NULL
P        2.49497761       0.15712877       0.08859508       0.00000000 NULL
P        4.09948177       2.08215008       5.31431135       0.00000000 NULL
P        0.41131448       0.23023910       6.76125816       0.00000000 NULL
P        5.07799793       0.24108972      11.98697443       0.00000000 NULL
P        2.73525930       4.27713083       1.53554189       0.00000000 NULL
P        2.79643829       1.32455352       9.31208636       0.00000000 NULL
P        2.93773194       1.75951031      14.53780263       0.00000000 NULL
P        2.49040148       1.66439580       4.08637009       0.00000000 NULL
P        3.12897573       2.78148700      11.88243182       0.00000000 NULL
P        1.50972181       1.31902944       1.43099927       0.00000000 NULL
P        3.58587417       0.64794319       6.65671555       0.00000000 NULL
18
Lattice="5.719502258804836 -7.764236523818524e-16 0.0 -2.859751129402417 4.953234253127468 0.0 0.0 0.0 16.163996059223944" Properties=species:S:1:pos:R:3:initial_magmoms:R:1:castep_labels:S:1 n_minim_iter=3 pbc="T T T"
P       -2.36827534       4.51858517      15.67039766       0.00000000 NULL
P        0.13067897       0.64295556       4.89440029       0.00000000 NULL
P        2.23759551       4.74492828      10.28239897       0.00000000 NULL
P        3.33981526       2.42885225       1.93190409       0.00000000 NULL
P        1.94614659       1.67793923       7.31990278       0.00000000 NULL
P        3.29329068       0.84644326      12.70790146       0.00000000 NULL
P        1.69506403       2.61716777      10.86507207       0.00000000 NULL
P        2.60543618       0.15938512       0.08907470       0.00000000 NULL
P        4.27875232       2.17668186       5.47707339       0.00000000 NULL
P        0.42897338       0.23603607       6.97423886       0.00000000 NULL
P        5.30060205       0.25348430      12.36223755       0.00000000 NULL
P        2.84967710       4.46371437       1.58624018       0.00000000 NULL
P        2.91818082       1.37953851       9.59885194       0.00000000 NULL
P        3.06569616       1.83744996      14.98685062       0.00000000 NULL
P        2.59537554       1.73624627       4.21085325       0.00000000 NULL
P        3.26789613       2.90547687      12.25343202       0.00000000 NULL
P        1.56933713       1.37734312       1.47743465       0.00000000 NULL
P        3.74201927       0.67041476       6.86543333       0.00000000 NULL
18
Lattice="5.778546489376308 1.9220311142893422e-16 0.0 -2.889273244688154 5.004368056749268 0.0 0.0 0.0 16.083628174917017" Properties=species:S:1:pos:R:3:initial_magmoms:R:1:castep_labels:S:1 n_minim_iter=4 pbc="T T T"
P       -2.39278541       4.56371778      15.59019319       0.00000000 NULL
P        0.13337013       0.65029671       4.86777441       0.00000000 NULL
P        2.25941442       4.79472212      10.22898380       0.00000000 NULL
P        3.37693593       2.45342611       1.92618780       0.00000000 NULL
P        1.96534889       1.69779975       7.28739719       0.00000000 NULL
P        3.32553404       0.85314270      12.64860658       0.00000000 NULL
P        1.71037380       2.64461998      10.80901521       0.00000000 NULL
P        2.63305121       0.15891767       0.08659643       0.00000000 NULL
P        4.32439385       2.20083090       5.44780582       0.00000000 NULL
P        0.43419877       0.23601227       6.94088588       0.00000000 NULL
P        5.35705420       0.25802153      12.30209527       0.00000000 NULL
P        2.87656590       4.51033476       1.57967649       0.00000000 NULL
P        2.94809603       1.39263254       9.54958876       0.00000000 NULL
P        3.09844303       1.85681028      14.91079815       0.00000000 NULL
P        2.62127981       1.75492573       4.18837936       0.00000000 NULL
P        3.30376618       2.93717877      12.19315880       0.00000000 NULL
P        1.58299168       1.39255655       1.47074002       0.00000000 NULL
P        3.78106101       0.67463324       6.83194941       0.00000000 NULL
18
Lattice="5.82472907822657 7.189725506402223e-16 0.0 -2.9123645391132853 5.044363351906126 0.0 0.0 0.0 15.886177986400522" Properties=species:S:1:pos:R:3:initial_magmoms:R:1:castep_labels:S:1 n_minim_iter=5 pbc="T T T"
P       -2.41147782       4.59791577      15.39507540       0.00000000 NULL
P        0.13619130       0.65700492       4.80429008       0.00000000 NULL
P        2.27528565       4.83380652      10.09968274       0.00000000 NULL
P        3.40730546       2.47227586       1.90868025       0.00000000 NULL
P        1.98002236       1.71467566       7.20407291       0.00000000 NULL
P        3.34976493       0.85741233      12.49946557       0.00000000 NULL
P        1.72115159       2.66685478      10.67327488       0.00000000 NULL
P        2.65458900       0.15713411       0.08248955       0.00000000 NULL
P        4.36135215       2.22037496       5.37788222       0.00000000 NULL
P        0.43935662       0.23435614       6.85807616       0.00000000 NULL
P        5.40209210       0.26331643      12.15346883       0.00000000 NULL
P        2.89564402       4.54669128       1.56268350       0.00000000 NULL
P        2.97087863       1.40208641       9.42973447       0.00000000 NULL
P        3.12504703       1.87181367      14.72512713       0.00000000 NULL
P        2.64116709       1.77046378       4.13434181       0.00000000 NULL
P        3.33331852       2.96269312      12.04431880       0.00000000 NULL
P        1.59230203       1.40539246       1.45353348       0.00000000 NULL
P        3.81147220       0.67627828       6.74892614       0.00000000 NULL
18
Lattice="5.854569492266345 6.014953270355221e-16 0.0 -2.927284746133173 5.070205908524017 0.0 0.0 0.0 15.6323901141472" Properties=species:S:1:pos:R:3:initial_magmoms:R:1:castep_labels:S:1 n_minim_iter=6 pbc="T T T"
P       -2.42199014       4.61784063      15.14134274       0.00000000 NULL
P        0.13911223       0.66378111       4.71974933       0.00000000 NULL
P        2.28287703       4.85879059       9.93054603       0.00000000 NULL
P        3.42957716       2.48360786       1.88886716       0.00000000 NULL
P        1.98891312       1.72829752       7.09966386       0.00000000 NULL
P        3.36336308       0.85830103      12.31046057       0.00000000 NULL
P        1.72519315       2.68310604      10.49790535       0.00000000 NULL
P        2.66833464       0.15250858       0.07631194       0.00000000 NULL
P        4.38832557       2.23459179       5.28710864       0.00000000 NULL
P        0.44539478       0.22958800       6.75427235       0.00000000 NULL
P        5.43304277       0.27092970      11.96506905       0.00000000 NULL
P        2.90341581       4.56968872       1.54347565       0.00000000 NULL
P        2.98418072       1.40641363       9.27368813       0.00000000 NULL
P        3.14448891       1.88117001      14.48448484       0.00000000 NULL
P        2.65318373       1.78262278       4.06289143       0.00000000 NULL
P        3.35595515       2.98065100      11.85352350       0.00000000 NULL
P        1.59527214       1.41601742       1.43193009       0.00000000 NULL
P        3.83062607       0.67353799       6.64272680       0.00000000 NULL
18
Lattice="5.850599668752375 5.810168274704459e-17 0.0 -2.9252998343761876 5.0667679405123796 0.0 0.0 0.0 15.60029538090672" Properties=species:S:1:pos:R:3:initial_magmoms:R:1:castep_labels:S:1 n_minim_iter=7 pbc="T T T"
P       -2.41746600       4.61149499      15.10084706       0.00000000 NULL
P        0.14036073       0.66743399       4.70065014       0.00000000 NULL
P        2.27710439       4.85460741       9.90074860       0.00000000 NULL
P        3.43114928       2.48060286       1.89551197       0.00000000 NULL
P        1.98675964       1.73116152       7.09561043       0.00000000 NULL
P        3.35798970       0.85500407      12.29570889       0.00000000 NULL
P        1.71933527       2.68449245      10.47223507       0.00000000 NULL
P        2.66609308       0.14674230       0.07203815       0.00000000 NULL
P        4.39047028       2.23553370       5.27213661       0.00000000 NULL
P        0.44953595       0.22352295       6.74799528       0.00000000 NULL
P        5.43225485       0.27754858      11.94809374       0.00000000 NULL
P        2.89410783       4.56569691       1.54789682       0.00000000 NULL
P        2.98000414       1.40258355       9.24816279       0.00000000 NULL
P        3.14592432       1.87946802      14.44826125       0.00000000 NULL
P        2.64997016       1.78471688       4.04806433       0.00000000 NULL
P        3.35925749       2.98083922      11.83108608       0.00000000 NULL
P        1.58948815       1.41878322       1.43088916       0.00000000 NULL
P        3.82715299       0.66714601       6.63098762       0.00000000 NULL
18
Lattice="5.8201558398368665 1.825834474327523e-15 0.0 -2.9100779199184346 5.040402811283081 0.0 0.0 0.0 15.417975552877294" Properties=species:S:1:pos:R:3:initial_magmoms:R:1:castep_labels:S:1 n_minim_iter=8 pbc="T T T"
P       -2.40169483       4.58341801      14.91418587       0.00000000 NULL
P        0.14156862       0.66876557       4.63553550       0.00000000 NULL
P        2.26012535       4.82862255       9.77486069       0.00000000 NULL
P        3.41795294       2.46610876       1.88613077       0.00000000 NULL
P        1.97546624       1.72698020       7.02545595       0.00000000 NULL
P        3.33681371       0.84731435      12.16478113       0.00000000 NULL
P        1.70541734       2.67467169      10.34532441       0.00000000 NULL
P        2.65111325       0.13959940       0.06667404       0.00000000 NULL
P        4.37370230       2.22613223       5.20599922       0.00000000 NULL
P        0.45230603       0.21539430       6.67711585       0.00000000 NULL
P        5.40746560       0.28401186      11.81644103       0.00000000 NULL
P        2.87046126       4.54099715       1.53779066       0.00000000 NULL
P        2.96183072       1.39174220       9.13199173       0.00000000 NULL
P        3.13395609       1.86915005      14.27131691       0.00000000 NULL
P        2.63444608       1.77951107       3.99266654       0.00000000 NULL
P        3.34792847       2.96787580      11.69485007       0.00000000 NULL
P        1.57593547       1.41545371       1.41619970       0.00000000 NULL
P        3.80636894       0.65707380       6.55552489       0.00000000 NULL
18
Lattice="5.838263015591402 2.429694169227439e-16 0.0 -2.919131507795701 5.056084085477299 0.0 0.0 0.0 15.493656897097349" Properties=species:S:1:pos:R:3:initial_magmoms:R:1:castep_labels:S:1 n_minim_iter=9 pbc="T T T"
P       -2.40776873       4.59563248      14.98202347       0.00000000 NULL
P        0.14308111       0.67307947       4.65291887       0.00000000 NULL
P        2.26468674       4.84345673       9.81747117       0.00000000 NULL
P        3.43126981       2.47303625       1.90137126       0.00000000 NULL
P        1.98091560       1.73504920       7.06592356       0.00000000 NULL
P        3.34520824       0.84799914      12.23047586       0.00000000 NULL
P        1.70780857       2.68499503      10.39421872       0.00000000 NULL
P        2.65908453       0.13650860       0.06511412       0.00000000 NULL
P        4.39050054       2.23458096       5.22966642       0.00000000 NULL
P        0.45602094       0.21238938       6.71411794       0.00000000 NULL
P        5.42631765       0.28873154      11.87867024       0.00000000 NULL
P        2.87505505       4.55496367       1.54956564       0.00000000 NULL
P        2.97027536       1.39406967       9.17259303       0.00000000 NULL
P        3.14582530       1.87529959      14.33714533       0.00000000 NULL
P        2.64129299       1.78671533       4.00804073       0.00000000 NULL
P        3.36155732       2.97868647      11.75352967       0.00000000 NULL
P        1.57786591       1.42185130       1.42442507       0.00000000 NULL
P        3.81797042       0.65554682       6.58897737       0.00000000 NULL
18
Lattice="5.822172302677502 1.58398937372699e-15 1.3458623994096456e-61 -2.9110861513387523 5.042149119328858 4.19113121151007e-46 -3.0335815198358587e-61 -1.2827923787008126e-45 15.420105875276498" Properties=species:S:1:pos:R:3:initial_magmoms:R:1:castep_labels:S:1 n_minim_iter=10 pbc="T T T"
P       -2.40033757       4.58170554      14.90829478       0.00000000 NULL
P        0.14338126       0.67254354       4.62822420       0.00000000 NULL
P        2.25695544       4.83004966       9.76825949       0.00000000 NULL
P        3.42318450       2.46579987       1.89597375       0.00000000 NULL
P        1.97513443       1.73166530       7.03600904       0.00000000 NULL
P        3.33493865       0.84468444      12.17604434       0.00000000 NULL
P        1.70189370       2.67888541      10.34379653       0.00000000 NULL
P        2.65124235       0.13444097       0.06372595       0.00000000 NULL
P        4.38012154       2.22882324       5.20376124       0.00000000 NULL
P        0.45612840       0.20982935       6.68420947       0.00000000 NULL
P        5.41239027       0.29010461      11.82424476       0.00000000 NULL
P        2.86473892       4.54221567       1.54417417       0.00000000 NULL
P        2.96138592       1.38914339       9.12658752       0.00000000 NULL
P        3.13844559       1.87006424      14.26662281       0.00000000 NULL
P        2.63342607       1.78294199       3.98655223       0.00000000 NULL
P        3.35386082       2.97119119      11.69828764       0.00000000 NULL
P        1.57211455       1.41893358       1.41821706       0.00000000 NULL
P        3.80728221       0.65202485       6.55825235       0.00000000 NULL
18
Lattice="5.819051967189162 -2.7422322460888533e-16 1.6124089491657374e-51 -2.9095259835945804 5.039446829527626 1.0278514667669683e-45 4.2704879582033475e-51 -1.3813023760097425e-45 15.404524511203869" Properties=species:S:1:pos:R:3:initial_magmoms:R:1:castep_labels:S:1 n_minim_iter=11 pbc="T T T"
P       -2.39825630       4.57788663      14.89025403       0.00000000 NULL
P        0.14408772       0.67355313       4.62057102       0.00000000 NULL
P        2.25416771       4.82745439       9.75541253       0.00000000 NULL
P        3.42298603       2.46403846       1.89783562       0.00000000 NULL
P        1.97363876       1.73237413       7.03267712       0.00000000 NULL
P        3.33195229       0.84303474      12.16751862       0.00000000 NULL
P        1.69946651       2.67878323      10.33224686       0.00000000 NULL
P        2.64942409       0.13239006       0.06256385       0.00000000 NULL
P        4.37968647       2.22827404       5.19740535       0.00000000 NULL
P        0.45729380       0.20749521       6.67971673       0.00000000 NULL
P        5.41070865       0.29228095      11.81455824       0.00000000 NULL
P        2.86057463       4.53967117       1.54487523       0.00000000 NULL
P        2.95923978       1.38715381       9.11469985       0.00000000 NULL
P        3.13812134       1.86920043      14.24954136       0.00000000 NULL
P        2.63121595       1.78309309       3.97985835       0.00000000 NULL
P        3.35386526       2.97049116      11.68716787       0.00000000 NULL
P        1.56959824       1.41928744       1.41748487       0.00000000 NULL
P        3.80511358       0.64966873       6.55232637       0.00000000 NULL
18
Lattice="5.76577748428608 9.11962469476644e-16 -4.15001173049581e-47 -2.8828887421430403 4.9933097739600765 1.0579381129498679e-45 -1.0986143627215793e-46 1.2856803263548e-45 15.166933298033612" Properties=species:S:1:pos:R:3:initial_magmoms:R:1:castep_labels:S:1 n_minim_iter=12 pbc="T T T"
P       -2.36758062       4.51993616      14.62738580       0.00000000 NULL
P        0.15229923       0.68295724       4.51609694       0.00000000 NULL
P        2.21528052       4.78372665       9.57174137       0.00000000 NULL
P        3.41079033       2.43658761       1.91157792       0.00000000 NULL
P        1.95023526       1.73553777       6.96722235       0.00000000 NULL
P        3.28763977       0.82118489      12.02286679       0.00000000 NULL
P        1.66702458       2.66976427      10.16075135       0.00000000 NULL
P        2.62018123       0.10880400       0.04946249       0.00000000 NULL
P        4.36145955       2.21474201       5.10510692       0.00000000 NULL
P        0.46910670       0.18002526       6.60164369       0.00000000 NULL
P        5.37531740       0.31624619      11.65728812       0.00000000 NULL
P        2.80424126       4.49703882       1.54599925       0.00000000 NULL
P        2.92598009       1.35995310       8.94352275       0.00000000 NULL
P        3.12503322       1.85399704      13.99916719       0.00000000 NULL
P        2.59765205       1.77936014       3.88787832       0.00000000 NULL
P        3.34345271       2.95352157      11.51488838       0.00000000 NULL
P        1.53622613       1.41875470       1.40359952       0.00000000 NULL
P        3.76898652       0.62103400       6.45924395       0.00000000 NULL
18
Lattice="5.738368251779471 -7.160013299250453e-16 4.110686790093263e-46 -2.869184125889735 4.969572682311121 -2.831160145807208e-43 1.0863221515166655e-45 1.1051099376478929e-42 15.885881468886264" Properties=species:S:1:pos:R:3:initial_magmoms:R:1:castep_labels:S:1 n_minim_iter=13 pbc="T T T"
P       -2.35590235       4.47441782      15.28943944       0.00000000 NULL
P        0.17217552       0.69209298       4.69885179       0.00000000 NULL
P        2.18372597       4.77263506       9.99414562       0.00000000 NULL
P        3.42766737       2.42511729       2.04294227       0.00000000 NULL
P        1.92432110       1.75588887       7.33823610       0.00000000 NULL
P        3.25556304       0.78856702      12.63352992       0.00000000 NULL
P        1.64203061       2.67571190      10.63552477       0.00000000 NULL
P        2.60011818       0.08418477       0.04493713       0.00000000 NULL
P        4.36540273       2.20967651       5.34023095       0.00000000 NULL
P        0.48148990       0.14753249       6.93414722       0.00000000 NULL
P        5.36985613       0.34321673      12.22944104       0.00000000 NULL
P        2.75620549       4.47882395       1.63885339       0.00000000 NULL
P        2.91596304       1.33084309       9.33574662       0.00000000 NULL
P        3.12784252       1.85987702      14.63104045       0.00000000 NULL
P        2.56374596       1.77885307       4.04045280       0.00000000 NULL
P        3.34728626       2.95275214      12.07030862       0.00000000 NULL
P        1.50756647       1.42245937       1.47972097       0.00000000 NULL
P        3.75269878       0.59436167       6.77501480       0.00000000 NULL
18
Lattice="5.6224570477863445 6.688916725158949e-16 -1.2744797135159723e-44 -2.8112285238931727 4.869190635069832 8.125836613915232e-44 -3.530386111810032e-44 1.7931195152543334e-42 15.16052943554861" Properties=species:S:1:pos:R:3:initial_magmoms:R:1:castep_labels:S:1 n_minim_iter=14 pbc="T T T"
P       -2.30925423       4.38229237      14.59310300       0.00000000 NULL
P        0.17067884       0.67817211       4.48608338       0.00000000 NULL
P        2.13857455       4.67791728       9.53959319       0.00000000 NULL
P        3.35963523       2.37634752       1.95196911       0.00000000 NULL
P        1.88466183       1.72135619       7.00547892       0.00000000 NULL
P        3.18938767       0.77148741      12.05898873       0.00000000 NULL
P        1.61034361       2.62241605      10.14931898       0.00000000 NULL
P        2.54620605       0.08339094       0.04229936       0.00000000 NULL
P        4.27713507       2.16338414       5.09580917       0.00000000 NULL
P        0.47207027       0.14360097       6.61525252       0.00000000 NULL
P        5.26205954       0.33702484      11.66876233       0.00000000 NULL
P        2.69955492       4.38856530       1.56174271       0.00000000 NULL
P        2.85660256       1.30331776       8.90877256       0.00000000 NULL
P        3.06544920       1.82223199      13.96228237       0.00000000 NULL
P        2.51163297       1.74364137       3.85526275       0.00000000 NULL
P        3.27865563       2.89308625      11.51865499       0.00000000 NULL
P        1.47764276       1.39285643       1.41163537       0.00000000 NULL
P        3.67738633       0.58324844       6.46514518       0.00000000 NULL
18
Lattice="5.663535169266758 4.477308123707386e-16 1.1456179725916856e-44 -2.8317675846333796 4.904765331811613 5.120392192794319e-43 2.989518563060043e-44 7.949889466212348e-43 15.249148666875813" Properties=species:S:1:pos:R:3:initial_magmoms:R:1:castep_labels:S:1 n_minim_iter=15 pbc="T T T"
P       -2.32748353       4.41289001      14.67770321       0.00000000 NULL
P        0.17383421       0.68266096       4.51160410       0.00000000 NULL
P        2.15364847       4.71398018       9.59465366       0.00000000 NULL
P        3.38682581       2.39390051       1.96428225       0.00000000 NULL
P        1.89694333       1.73612742       7.04733181       0.00000000 NULL
P        3.21153277       0.77473789      12.13038136       0.00000000 NULL
P        1.62092142       2.64161243      10.20849135       0.00000000 NULL
P        2.56537071       0.08295341       0.04239224       0.00000000 NULL
P        4.30900978       2.18019999       5.12544180       0.00000000 NULL
P        0.47574895       0.14282310       6.65380782       0.00000000 NULL
P        5.30197198       0.34059961      11.73685737       0.00000000 NULL
P        2.71758098       4.42134311       1.57075826       0.00000000 NULL
P        2.87837843       1.31149742       8.96057068       0.00000000 NULL
P        3.08855559       1.83700062      14.04362024       0.00000000 NULL
P        2.52836789       1.75626778       3.87752113       0.00000000 NULL
P        3.30360899       2.91512437      11.58633008       0.00000000 NULL
P        1.48715863       1.40344761       1.42023097       0.00000000 NULL
P        3.70453429       0.58619383       6.50328052       0.00000000 NULL
