8
Lattice="5.47287 -4.378359734082478e-16 -3.0425622858551503e-16 0.5463208428507563 5.617295788603876 6.151733819653757e-16 0.5463208428507564 0.3941212712634388 5.603452542870737" Properties=species:S:1:pos:R:3:initial_magmoms:R:1:castep_labels:S:1 n_minim_iter=1 pbc="T T T"
P        1.19399435       0.91244300       5.06783925       0.00000000 NULL
P        3.93042935       5.11936900       0.55462413       0.00000000 NULL
P        2.56112635       4.07536144       1.58188771       0.00000000 NULL
P        5.29756135       1.86392523       3.95432957       0.00000000 NULL
P        3.07127221       2.62385862       3.48007575       0.00000000 NULL
P        5.80770721       3.65559490       2.37322296       0.00000000 NULL
P        5.84444955       4.41802699       0.46897536       0.00000000 NULL
P        3.10801455       0.77779767       4.37423492       0.00000000 NULL
8
Lattice="5.479392324905153 -0.00039106086158844624 -0.0003645215358477789 0.5465705431923756 5.6218922318711995 -0.004116939339691805 0.5465705431923756 0.39033697380999827 5.608326511789423" Properties=species:S:1:pos:R:3:initial_magmoms:R:1:castep_labels:S:1 n_minim_iter=2 pbc="T T T"
P        1.19497484       0.90940214       5.07200639       0.00000000 NULL
P        3.93467100       5.12311699       0.55111612       0.00000000 NULL
P        2.56359220       4.07720533       1.58038218       0.00000000 NULL
P        5.30328837       1.86235725       3.95609228       0.00000000 NULL
P        3.07453360       2.62351253       3.48110347       0.00000000 NULL
P        5.81422977       3.65640027       2.37262337       0.00000000 NULL
P        5.85127686       4.42083691       0.46559239       0.00000000 NULL
P        3.11158070       0.77481572       4.37745754       0.00000000 NULL
8
Lattice="5.614944703882445 -0.008618516164589545 -0.00803362099772648 0.5516572782891016 5.718417399270477 -0.09100541993579052 0.5516572782891016 0.3104350293959908 5.710710081177377" Properties=species:S:1:pos:R:3:initial_magmoms:R:1:castep_labels:S:1 n_minim_iter=3 pbc="T T T"
P        1.21515995       0.84506002       5.15964742       0.00000000 NULL
P        4.02263230       5.20191393       0.47694895       0.00000000 NULL
P        2.61452752       4.11562333       1.54863857       0.00000000 NULL
P        5.42199988       1.82927363       3.99280826       0.00000000 NULL
P        3.14226099       2.61611924       3.50236565       0.00000000 NULL
P        5.94973334       3.67297760       2.35992194       0.00000000 NULL
P        5.99332481       4.47983272       0.39411245       0.00000000 NULL
P        3.18585246       0.71176493       4.44515769       0.00000000 NULL
8
Lattice="5.613013365907957 -0.0100821224819611 -0.00939789974584221 0.5499622554230743 5.733739715001372 -0.1090544133443577 0.5499622554230743 0.2935055617240439 5.727260991930694" Properties=species:S:1:pos:R:3:initial_magmoms:R:1:castep_labels:S:1 n_minim_iter=4 pbc="T T T"
P        1.21179638       0.83054231       5.17593203       0.00000000 NULL
P        4.01830307       5.21640801       0.46064231       0.00000000 NULL
P        2.60851555       4.11754984       1.54288748       0.00000000 NULL
P        5.41502223       1.82294008       3.99445139       0.00000000 NULL
P        3.14087724       2.61451365       3.50292281       0.00000000 NULL
P        5.94738392       3.67268893       2.35759908       0.00000000 NULL
P        5.99375348       4.48807274       0.37747701       0.00000000 NULL
P        3.18724680       0.69648043       4.45522671       0.00000000 NULL
8
Lattice="5.587114127527471 -0.010848183197730798 -0.010111971789592217 0.5465906271231633 5.740604398986489 -0.12220783366528153 0.5465906271231633 0.28086619729717294 5.735031630208156" Properties=species:S:1:pos:R:3:initial_magmoms:R:1:castep_labels:S:1 n_minim_iter=5 pbc="T T T"
P        1.20303489       0.81904816       5.18604462       0.00000000 NULL
P        3.99659196       5.22530619       0.44810993       0.00000000 NULL
P        2.59073032       4.11348787       1.53943229       0.00000000 NULL
P        5.38428738       1.81882538       3.99028481       0.00000000 NULL
P        3.12743973       2.61309098       3.50003177       0.00000000 NULL
P        5.92099680       3.66932217       2.35602571       0.00000000 NULL
P        5.97070883       4.49034575       0.36395046       0.00000000 NULL
P        3.17715176       0.68352973       4.45880021       0.00000000 NULL
8
Lattice="5.45387037153111 -0.01210039870717829 -0.011279205756351914 0.5320045130754748 5.75310684055346 -0.16459056346185594 0.5320045130754749 0.23946511292487432 5.750476922142684" Properties=species:S:1:pos:R:3:initial_magmoms:R:1:castep_labels:S:1 n_minim_iter=6 pbc="T T T"
P        1.16082386       0.78030659       5.21615086       0.00000000 NULL
P        3.88775904       5.25199395       0.40676790       0.00000000 NULL
P        2.50698072       4.08721692       1.53072601       0.00000000 NULL
P        5.23391591       1.80767122       3.96410584       0.00000000 NULL
P        3.05965839       2.60826994       3.48370421       0.00000000 NULL
P        5.78659357       3.65207048       2.35177852       0.00000000 NULL
P        5.85095063       4.48884706       0.31757655       0.00000000 NULL
P        3.12401544       0.63779105       4.46114252       0.00000000 NULL
8
Lattice="5.43694300836134 -0.0006209632577994774 -0.000578821617481001 0.5420971359755619 5.825672321891343 -0.2256725862108587 0.5420971359755621 0.18362496710627252 5.827149216355557" Properties=species:S:1:pos:R:3:initial_magmoms:R:1:castep_labels:S:1 n_minim_iter=7 pbc="T T T"
P        1.14354348       0.73948391       5.31191136       0.00000000 NULL
P        3.86201498       5.35039396       0.36467726       0.00000000 NULL
P        2.49294825       4.09509869       1.53400426       0.00000000 NULL
P        5.21141975       1.81723411       3.97708837       0.00000000 NULL
P        3.07065001       2.62777974       3.50416078       0.00000000 NULL
P        5.78912151       3.67958521       2.37515515       0.00000000 NULL
P        5.87803634       4.53645857       0.27113237       0.00000000 NULL
P        3.15956483       0.58906214       4.50654513       0.00000000 NULL
8
Lattice="5.28427102558805 0.020036671186655586 0.01867688350240812 0.5480596669070391 5.751817340035854 -0.17766165332600053 0.5480596669070394 0.22633576134786623 5.750107694585791" Properties=species:S:1:pos:R:3:initial_magmoms:R:1:castep_labels:S:1 n_minim_iter=8 pbc="T T T"
P        1.13011583       0.77456129       5.25098668       0.00000000 NULL
P        3.77225135       5.30240935       0.41357065       0.00000000 NULL
P        2.44275043       4.05968202       1.55366652       0.00000000 NULL
P        5.08488594       1.84469182       3.95000729       0.00000000 NULL
P        3.00825052       2.63272462       3.48637256       0.00000000 NULL
P        5.65038604       3.67251658       2.39096376       0.00000000 NULL
P        5.73329097       4.50170257       0.32052085       0.00000000 NULL
P        3.09115546       0.62556153       4.45878173       0.00000000 NULL
8
Lattice="5.340118584738478 0.023754008621381172 0.02214194401873528 0.55744999949362 5.791035255316274 -0.20719993994572639 0.5574499994936203 0.1996218800975391 5.791301429593856" Properties=species:S:1:pos:R:3:initial_magmoms:R:1:castep_labels:S:1 n_minim_iter=9 pbc="T T T"
P        1.14358280       0.75531170       5.28872006       0.00000000 NULL
P        3.81364209       5.34055782       0.39345358       0.00000000 NULL
P        2.47239177       4.07809439       1.54742442       0.00000000 NULL
P        5.14245106       1.84161562       3.97054477       0.00000000 NULL
P        3.04345302       2.63643914       3.50068671       0.00000000 NULL
P        5.71351231       3.68891474       2.39539734       0.00000000 NULL
P        5.79916036       4.53167202       0.30272089       0.00000000 NULL
P        3.12910107       0.60804949       4.48819367       0.00000000 NULL
