8
Lattice="3.938869999999999 0.0 0.0 0.0 6.82519 0.0 0.0 0.0 6.82519" Properties=species:S:1:pos:R:3:initial_magmoms:R:1:castep_labels:S:1 n_minim_iter=1 pbc="T T T"
P        2.80223816       5.38687608       5.31357831       0.00000000 NULL
P        2.80223816       1.43831392       1.51161169       0.00000000 NULL
P        0.83280316       5.31357831       1.43831392       0.00000000 NULL
P        0.83280316       1.51161169       5.38687608       0.00000000 NULL
P        3.24945982       3.54561864       4.41825808       0.00000000 NULL
P        3.24945982       3.27957136       2.40693192       0.00000000 NULL
P        1.28002482       4.41825808       3.27957136       0.00000000 NULL
P        1.28002482       2.40693192       3.54561864       0.00000000 NULL
8
Lattice="3.9427524528046796 0.0 0.0 0.0 6.828853093601281 0.0 0.0 0.0 6.828853093601281" Properties=species:S:1:pos:R:3:initial_magmoms:R:1:castep_labels:S:1 n_minim_iter=2 pbc="T T T"
P        2.80494875       5.38975980       5.31643774       0.00000000 NULL
P        2.80494875       1.43909329       1.51241536       0.00000000 NULL
P        0.83357252       5.31643774       1.43909329       0.00000000 NULL
P        0.83357252       1.51241536       5.38975980       0.00000000 NULL
P        3.25271425       3.54752760       4.42099850       0.00000000 NULL
P        3.25271425       3.28132549       2.40785460       0.00000000 NULL
P        1.28133802       4.42099850       3.28132549       0.00000000 NULL
P        1.28133802       2.40785460       3.54752760       0.00000000 NULL
8
Lattice="4.100364342628132 0.0 0.0 0.0 6.975491560382902 0.0 0.0 0.0 6.975491560382902" Properties=species:S:1:pos:R:3:initial_magmoms:R:1:castep_labels:S:1 n_minim_iter=3 pbc="T T T"
P        2.91490792       5.50511862       5.43089749       0.00000000 NULL
P        2.91490792       1.47037294       1.54459407       0.00000000 NULL
P        0.86472575       5.43089749       1.47037294       0.00000000 NULL
P        0.86472575       1.54459407       5.50511862       0.00000000 NULL
P        3.38491071       3.62399236       4.53117547       0.00000000 NULL
P        3.38491071       3.35149920       2.44431609       0.00000000 NULL
P        1.33472854       4.53117547       3.35149920       0.00000000 NULL
P        1.33472854       2.44431609       3.62399236       0.00000000 NULL
8
Lattice="4.156196046003937 -1.9285329415235946e-44 0.0 3.2807975422242296e-44 7.022834871443819 -5.192855012689385e-72 0.0 5.192855012689385e-72 7.022834871443819" Properties=species:S:1:pos:R:3:initial_magmoms:R:1:castep_labels:S:1 n_minim_iter=4 pbc="T T T"
P        2.95249220       5.53928075       5.46745818       0.00000000 NULL
P        2.95249220       1.48355412       1.55537669       0.00000000 NULL
P        0.87439418       5.46745818       1.48355412       0.00000000 NULL
P        0.87439418       1.55537669       5.53928075       0.00000000 NULL
P        3.43310652       3.65052602       4.57723142       0.00000000 NULL
P        3.43310652       3.37230886       2.44560345       0.00000000 NULL
P        1.35500849       4.57723142       3.37230886       0.00000000 NULL
P        1.35500849       2.44560345       3.65052602       0.00000000 NULL
8
Lattice="4.265749476547428 3.160281584669261e-44 -3.7753796789223487e-116 3.363475968013882e-44 7.084820692879312 -5.238688837554868e-72 2.1355979263931995e-134 5.238688837554868e-72 7.084820692879312" Properties=species:S:1:pos:R:3:initial_magmoms:R:1:castep_labels:S:1 n_minim_iter=5 pbc="T T T"
P        3.02349256       5.57823520       5.51513621       0.00000000 NULL
P        3.02349256       1.50658549       1.56968448       0.00000000 NULL
P        0.89061783       5.51513621       1.50658549       0.00000000 NULL
P        0.89061783       1.56968448       5.57823520       0.00000000 NULL
P        3.53042455       3.68711132       4.65465119       0.00000000 NULL
P        3.53042455       3.39770937       2.43016950       0.00000000 NULL
P        1.39754981       4.65465119       3.39770937       0.00000000 NULL
P        1.39754981       2.43016950       3.68711132       0.00000000 NULL
8
Lattice="4.2929934626636 2.8871445934475423e-44 2.7552561979334204e-116 4.569307571708583e-44 7.002222034710379 -6.489170523020016e-74 -6.695432735236344e-116 6.489170523020018e-74 7.002222034710379" Properties=species:S:1:pos:R:3:initial_magmoms:R:1:castep_labels:S:1 n_minim_iter=6 pbc="T T T"
P        3.03204772       5.50406011       5.45106784       0.00000000 NULL
P        3.03204772       1.49816192       1.55115419       0.00000000 NULL
P        0.88555099       5.45106784       1.49816192       0.00000000 NULL
P        0.88555099       1.55115419       5.50406011       0.00000000 NULL
P        3.56372718       3.64216160       4.62476494       0.00000000 NULL
P        3.56372718       3.36006044       2.37745710       0.00000000 NULL
P        1.41723045       4.62476494       3.36006044       0.00000000 NULL
P        1.41723045       2.37745710       3.64216160       0.00000000 NULL
8
Lattice="4.276062198301324 4.304946547357823e-44 2.75278754214083e-116 6.095981877252596e-44 6.979112974024237 -6.467754658930611e-74 -6.636646402580108e-116 6.467754658930613e-74 6.979112974024237" Properties=species:S:1:pos:R:3:initial_magmoms:R:1:castep_labels:S:1 n_minim_iter=7 pbc="T T T"
P        3.01242200       5.48697268       5.43636857       0.00000000 NULL
P        3.01242200       1.49214030       1.54274441       0.00000000 NULL
P        0.87439090       5.43636857       1.49214030       0.00000000 NULL
P        0.87439090       1.54274441       5.48697268       0.00000000 NULL
P        3.55733963       3.62280460       4.61908964       0.00000000 NULL
P        3.55733963       3.35630838       2.36002333       0.00000000 NULL
P        1.41930853       4.61908964       3.35630838       0.00000000 NULL
P        1.41930853       2.36002333       3.62280460       0.00000000 NULL
8
Lattice="4.254401585490113 1.7766813764899103e-44 2.8333194771223585e-116 4.628201596530442e-44 6.911659530102439 -6.4052435163527645e-74 -6.465776721677913e-116 6.405243516352766e-74 6.911659530102439" Properties=species:S:1:pos:R:3:initial_magmoms:R:1:castep_labels:S:1 n_minim_iter=8 pbc="T T T"
P        2.99131520       5.43482391       5.38620669       0.00000000 NULL
P        2.99131520       1.47683562       1.52545284       0.00000000 NULL
P        0.86411441       5.38620669       1.47683562       0.00000000 NULL
P        0.86411441       1.52545284       5.43482391       0.00000000 NULL
P        3.54516696       3.58210168       4.58180690       0.00000000 NULL
P        3.54516696       3.32955785       2.32985263       0.00000000 NULL
P        1.41796616       4.58180690       3.32955785       0.00000000 NULL
P        1.41796616       2.32985263       3.58210168       0.00000000 NULL
8
Lattice="4.227121061500198 4.426589341863843e-44 4.648847807823335e-116 2.8820424154161417e-44 6.81821144254098 1.2470168698174275e-72 -8.550612283620292e-116 -1.2470168698174272e-72 6.81821144254098" Properties=species:S:1:pos:R:3:initial_magmoms:R:1:castep_labels:S:1 n_minim_iter=9 pbc="T T T"
P        2.96557705       5.36368094       5.31629938       0.00000000 NULL
P        2.96557705       1.45453050       1.50191206       0.00000000 NULL
P        0.85201652       5.31629938       1.45453050       0.00000000 NULL
P        0.85201652       1.50191206       5.36368094       0.00000000 NULL
P        3.52899118       3.52636486       4.52840639       0.00000000 NULL
P        3.52899118       3.29184658       2.28980506       0.00000000 NULL
P        1.41543065       4.52840639       3.29184658       0.00000000 NULL
P        1.41543065       2.28980506       3.52636486       0.00000000 NULL
8
Lattice="4.211666431080726 2.340023624890965e-44 2.611712640193541e-116 7.026055062086011e-44 6.7279964590387955 -9.764349491709317e-74 -6.795664634682323e-116 9.764349491709347e-74 6.7279964590387955" Properties=species:S:1:pos:R:3:initial_magmoms:R:1:castep_labels:S:1 n_minim_iter=10 pbc="T T T"
P        2.94699889       5.29702597       5.24888080       0.00000000 NULL
P        2.94699889       1.43097049       1.47911566       0.00000000 NULL
P        0.84116568       5.24888080       1.43097049       0.00000000 NULL
P        0.84116568       1.47911566       5.29702597       0.00000000 NULL
P        3.52382478       3.47013891       4.47844117       0.00000000 NULL
P        3.52382478       3.25785755       2.24955529       0.00000000 NULL
P        1.41799156       4.47844117       3.25785755       0.00000000 NULL
P        1.41799156       2.24955529       3.47013891       0.00000000 NULL
8
Lattice="4.220018151985929 5.182001074859466e-44 1.8949972086262026e-115 9.225309466862345e-44 6.654330099302662 7.979243561225364e-72 -2.8127450794679385e-115 -7.979243561225364e-72 6.654330099302662" Properties=species:S:1:pos:R:3:initial_magmoms:R:1:castep_labels:S:1 n_minim_iter=11 pbc="T T T"
P        2.94393198       5.24471087       5.19364653       0.00000000 NULL
P        2.94393198       1.40961923       1.46068357       0.00000000 NULL
P        0.83392291       5.19364653       1.40961923       0.00000000 NULL
P        0.83392291       1.46068357       5.24471087       0.00000000 NULL
P        3.53972331       3.42083028       4.44035817       0.00000000 NULL
P        3.53972331       3.23349982       2.21397193       0.00000000 NULL
P        1.42971423       4.44035817       3.23349982       0.00000000 NULL
P        1.42971423       2.21397193       3.42083028       0.00000000 NULL
8
Lattice="4.243516623521738 9.196546585518073e-44 1.6057406117650441e-115 6.377494220312941e-44 6.598823883752549 5.190945491576845e-72 -1.8161905378864012e-115 -5.190945491576845e-72 6.598823883752549" Properties=species:S:1:pos:R:3:initial_magmoms:R:1:castep_labels:S:1 n_minim_iter=12 pbc="T T T"
P        2.95044665       5.20692963       5.15139192       0.00000000 NULL
P        2.95044665       1.39189425       1.44743196       0.00000000 NULL
P        0.82868834       5.15139192       1.39189425       0.00000000 NULL
P        0.82868834       1.44743196       5.20692963       0.00000000 NULL
P        3.56931180       3.38024818       4.41453379       0.00000000 NULL
P        3.56931180       3.21857571       2.18429009       0.00000000 NULL
P        1.44755349       4.41453379       3.21857571       0.00000000 NULL
P        1.44755349       2.18429009       3.38024818       0.00000000 NULL
8
Lattice="4.252515922090642 4.727662863160768e-44 -3.289290940237549e-116 1.453213213924936e-43 6.583914454488526 -3.1005150264573006e-73 -5.234076453996748e-116 3.1005150264573e-73 6.583914454488526" Properties=species:S:1:pos:R:3:initial_magmoms:R:1:castep_labels:S:1 n_minim_iter=13 pbc="T T T"
P        2.95333578       5.19690056       5.13961576       0.00000000 NULL
P        2.95333578       1.38701389       1.44429869       0.00000000 NULL
P        0.82707782       5.13961576       1.38701389       0.00000000 NULL
P        0.82707782       1.44429869       5.19690056       0.00000000 NULL
P        3.58024924       3.36871972       4.40806942       0.00000000 NULL
P        3.58024924       3.21519473       2.17584504       0.00000000 NULL
P        1.45399127       4.40806942       3.21519473       0.00000000 NULL
P        1.45399127       2.17584504       3.36871972       0.00000000 NULL
8
Lattice="4.275054671731836 4.391678221333223e-45 1.4056708204853828e-115 6.42876754097058e-44 6.547089905510376 3.817956983961563e-72 -2.699520962279502e-115 -3.817956983961563e-72 6.547089905510376" Properties=species:S:1:pos:R:3:initial_magmoms:R:1:castep_labels:S:1 n_minim_iter=14 pbc="T T T"
P        2.96059749       5.17184242       5.11017097       0.00000000 NULL
P        2.96059749       1.37524748       1.43691894       0.00000000 NULL
P        0.82307016       5.11017097       1.37524748       0.00000000 NULL
P        0.82307016       1.43691894       5.17184242       0.00000000 NULL
P        3.60761616       3.34047946       4.39181358       0.00000000 NULL
P        3.60761616       3.20661045       2.15527633       0.00000000 NULL
P        1.47008883       4.39181358       3.20661045       0.00000000 NULL
P        1.47008883       2.15527633       3.34047946       0.00000000 NULL
8
Lattice="4.287145006827306 -1.1461607837279828e-45 9.513703144090983e-116 -1.2172311755404201e-44 6.529118288513368 1.041154880941868e-72 -2.045059312208284e-115 -1.0411548809418681e-72 6.529118288513368" Properties=species:S:1:pos:R:3:initial_magmoms:R:1:castep_labels:S:1 n_minim_iter=15 pbc="T T T"
P        2.96490577       5.15932746       5.09546355       0.00000000 NULL
P        2.96490577       1.36979083       1.43365473       0.00000000 NULL
P        0.82133327       5.09546355       1.36979083       0.00000000 NULL
P        0.82133327       1.43365473       5.15932746       0.00000000 NULL
P        3.62188353       3.32699301       4.38348174       0.00000000 NULL
P        3.62188353       3.20212528       2.14563654       0.00000000 NULL
P        1.47831103       4.38348174       3.20212528       0.00000000 NULL
P        1.47831103       2.14563654       3.32699301       0.00000000 NULL
8
Lattice="4.323544370182089 -1.640474289880133e-43 2.170748812619243e-116 2.2598910842687328e-43 6.481256147632021 1.7677140360852842e-71 -1.2906091247028205e-115 -1.7677140360852844e-71 6.481256147632021" Properties=species:S:1:pos:R:3:initial_magmoms:R:1:castep_labels:S:1 n_minim_iter=16 pbc="T T T"
P        2.97872248       5.12586109       5.05586217       0.00000000 NULL
P        2.97872248       1.35539506       1.42539398       0.00000000 NULL
P        0.81695029       5.05586217       1.35539506       0.00000000 NULL
P        0.81695029       1.42539398       5.12586109       0.00000000 NULL
P        3.66399098       3.29098775       4.36112758       0.00000000 NULL
P        3.66399098       3.19026840       2.12012857       0.00000000 NULL
P        1.50221879       4.36112758       3.19026840       0.00000000 NULL
P        1.50221879       2.12012857       3.29098775       0.00000000 NULL
8
Lattice="4.373058094630211 4.574074253760476e-44 2.9159625706602864e-115 6.423768040322194e-44 6.435485388501096 6.374620124716518e-72 7.488149434803073e-115 -6.37462012471652e-72 6.435485388501096" Properties=species:S:1:pos:R:3:initial_magmoms:R:1:castep_labels:S:1 n_minim_iter=17 pbc="T T T"
P        3.00087693       5.09338125       5.01687472       0.00000000 NULL
P        3.00087693       1.34210413       1.41861066       0.00000000 NULL
P        0.81434788       5.01687472       1.34210413       0.00000000 NULL
P        0.81434788       1.41861066       5.09338125       0.00000000 NULL
P        3.71790964       3.25647927       4.33912367       0.00000000 NULL
P        3.71790964       3.17900612       2.09636172       0.00000000 NULL
P        1.53138059       4.33912367       3.17900612       0.00000000 NULL
P        1.53138059       2.09636172       3.25647927       0.00000000 NULL
8
Lattice="4.4409846597468645 1.2756484132098653e-43 6.243000507795606e-114 2.2118483490771499e-44 6.384461258175787 2.764964553467832e-70 -5.1044294589923646e-114 -2.764964553467832e-70 6.384461258175787" Properties=species:S:1:pos:R:3:initial_magmoms:R:1:castep_labels:S:1 n_minim_iter=18 pbc="T T T"
P        3.03484251       5.05594306       4.97282626       0.00000000 NULL
P        3.03484251       1.32851820       1.41163500       0.00000000 NULL
P        0.81435018       4.97282626       1.32851820       0.00000000 NULL
P        0.81435018       1.41163500       5.05594306       0.00000000 NULL
P        3.78830674       3.21992679       4.31243842       0.00000000 NULL
P        3.78830674       3.16453447       2.07202284       0.00000000 NULL
P        1.56781441       4.31243842       3.16453447       0.00000000 NULL
P        1.56781441       2.07202284       3.21992679       0.00000000 NULL
8
Lattice="4.540074868371167 -7.082822331748958e-44 -6.743755178938412e-114 1.4288612096334706e-43 6.328753894518326 9.25295138646422e-71 -3.7124256630706426e-114 -9.25295138646422e-71 6.328753894518326" Properties=species:S:1:pos:R:3:initial_magmoms:R:1:castep_labels:S:1 n_minim_iter=19 pbc="T T T"
P        3.08895120       5.01399142       4.92416905       0.00000000 NULL
P        3.08895120       1.31476247       1.40458484       0.00000000 NULL
P        0.81891377       4.92416905       1.31476247       0.00000000 NULL
P        0.81891377       1.40458484       5.01399142       0.00000000 NULL
P        3.88644070       3.18162233       4.28147813       0.00000000 NULL
P        3.88644070       3.14713156       2.04727577       0.00000000 NULL
P        1.61640327       4.28147813       3.14713156       0.00000000 NULL
P        1.61640327       2.04727577       3.18162233       0.00000000 NULL
8
Lattice="4.680818156065539 -2.738975244971298e-43 -1.3217322715556658e-113 -1.3691297089165572e-43 6.254723280578111 -9.170532260430682e-71 4.4071274633159364e-114 9.170532260430682e-71 6.254723280578111" Properties=species:S:1:pos:R:3:initial_magmoms:R:1:castep_labels:S:1 n_minim_iter=20 pbc="T T T"
P        3.16988804       4.95647080       4.86013692       0.00000000 NULL
P        3.16988804       1.29825248       1.39458636       0.00000000 NULL
P        0.82947896       4.86013692       1.29825248       0.00000000 NULL
P        0.82947896       1.39458636       4.95647080       0.00000000 NULL
P        4.02174250       3.13481973       4.23724114       0.00000000 NULL
P        4.02174250       3.11990355       2.01748214       0.00000000 NULL
P        1.68133342       4.23724114       3.11990355       0.00000000 NULL
P        1.68133342       2.01748214       3.13481973       0.00000000 NULL
8
Lattice="4.853814931715373 -2.919512188641034e-43 -1.9672685058076882e-113 2.002294022901782e-44 6.161125537640616 2.32711430338422e-72 7.910983883860778e-114 -2.3271143033842127e-72 6.161125537640616" Properties=species:S:1:pos:R:3:initial_magmoms:R:1:castep_labels:S:1 n_minim_iter=21 pbc="T T T"
P        3.27106605       4.88236774       4.77978385       0.00000000 NULL
P        3.27106605       1.27875780       1.38134169       0.00000000 NULL
P        0.84415859       4.77978385       1.27875780       0.00000000 NULL
P        0.84415859       1.38134169       4.88236774       0.00000000 NULL
P        4.18635753       3.07865497       4.17932619       0.00000000 NULL
P        4.18635753       3.08247056       1.98179935       0.00000000 NULL
P        1.75945006       4.17932619       3.08247056       0.00000000 NULL
P        1.75945006       1.98179935       3.07865497       0.00000000 NULL
8
Lattice="5.552862847790486 -3.922502503049284e-43 -1.9950080764173136e-113 1.6560764332093467e-43 5.735265036404976 2.1662628392130572e-72 7.029952270853928e-114 -2.1662628392130527e-72 5.735265036404976" Properties=species:S:1:pos:R:3:initial_magmoms:R:1:castep_labels:S:1 n_minim_iter=22 pbc="T T T"
P        3.66156149       4.54357729       4.41446237       0.00000000 NULL
P        3.66156149       1.19168775       1.32080267       0.00000000 NULL
P        0.88513007       4.41446237       1.19168775       0.00000000 NULL
P        0.88513007       1.32080267       4.54357729       0.00000000 NULL
P        4.86988252       2.82677054       3.91561232       0.00000000 NULL
P        4.86988252       2.90849450       1.81965272       0.00000000 NULL
P        2.09345110       3.91561232       2.90849450       0.00000000 NULL
P        2.09345110       1.81965272       2.82677054       0.00000000 NULL
8
Lattice="5.040187557367822 -4.129338768067441e-43 -1.9568342641785178e-113 2.9817871911536416e-43 5.84449890128335 2.2075214838907877e-72 7.172785506662718e-114 -2.2075214838907822e-72 5.84449890128335" Properties=species:S:1:pos:R:3:initial_magmoms:R:1:castep_labels:S:1 n_minim_iter=23 pbc="T T T"
P        3.32018705       4.62999777       4.48917085       0.00000000 NULL
P        3.32018705       1.21450113       1.35532805       0.00000000 NULL
P        0.80009327       4.48917085       1.21450113       0.00000000 NULL
P        0.80009327       1.35532805       4.62999777       0.00000000 NULL
P        4.42358029       2.86932057       4.01853240       0.00000000 NULL
P        4.42358029       2.97517833       1.82596650       0.00000000 NULL
P        1.90348651       4.01853240       2.97517833       0.00000000 NULL
P        1.90348651       1.82596650       2.86932057       0.00000000 NULL
8
Lattice="5.32895728665833 -3.068232886776941e-43 -2.0199092192742535e-113 1.672647092247903e-43 6.011184813641494 2.270480300173862e-72 7.447853859023656e-114 -2.27048030017386e-72 6.011184813641494" Properties=species:S:1:pos:R:3:initial_magmoms:R:1:castep_labels:S:1 n_minim_iter=24 pbc="T T T"
P        3.50939604       4.76503088       4.61817060       0.00000000 NULL
P        3.50939604       1.24615394       1.39301421       0.00000000 NULL
P        0.84491740       4.61817060       1.24615394       0.00000000 NULL
P        0.84491740       1.39301421       4.76503088       0.00000000 NULL
P        4.67803843       2.95006044       4.13275074       0.00000000 NULL
P        4.67803843       3.06112437       1.87843407       0.00000000 NULL
P        2.01355979       4.13275074       3.06112437       0.00000000 NULL
P        2.01355979       1.87843407       2.95006044       0.00000000 NULL
8
Lattice="5.224304521412035 -3.0106777415447344e-43 -1.5996213745891232e-113 -1.071279737496658e-43 5.866508680309712 -1.906125273507042e-70 1.4047094272302223e-113 1.906125273507042e-70 5.866508680309712" Properties=species:S:1:pos:R:3:initial_magmoms:R:1:castep_labels:S:1 n_minim_iter=25 pbc="T T T"
P        3.44141118       4.64898900       4.50489534       0.00000000 NULL
P        3.44141118       1.21751968       1.36161334       0.00000000 NULL
P        0.82925892       4.50489534       1.21751968       0.00000000 NULL
P        0.82925892       1.36161334       4.64898900       0.00000000 NULL
P        4.58523431       2.87905375       4.03177726       0.00000000 NULL
P        4.58523431       2.98745493       1.83473142       0.00000000 NULL
P        1.97308205       4.03177726       2.98745493       0.00000000 NULL
P        1.97308205       1.83473142       2.87905375       0.00000000 NULL
