8
Lattice="2.975200000000002 -2.1601980521033538e-16 0.0 -0.8848739608373127 7.135371712414995 0.0 0.0 0.0 8.33144" Properties=species:S:1:pos:R:3:initial_magmoms:R:1:castep_labels:S:1 n_minim_iter=1 pbc="T T T"
P        0.48494911       4.57086774       3.93453837       0.00000000 NULL
P        1.60537693       2.56450397       8.10025837       0.00000000 NULL
P        0.55716910       0.42132229       1.45254491       0.00000000 NULL
P        1.53315694       6.71404942       5.61826491       0.00000000 NULL
P       -0.14996426       2.14954286       6.54390789       0.00000000 NULL
P        2.24029030       4.98582885       2.37818789       0.00000000 NULL
P        1.31662800       2.91338440       1.74993399       0.00000000 NULL
P        0.77369804       4.22198731       5.91565399       0.00000000 NULL
8
Lattice="2.974759530451382 -0.0021844542419691988 0.0 -0.8899818974369025 7.131975863684663 0.0 0.0 0.0 8.339719080721741" Properties=species:S:1:pos:R:3:initial_magmoms:R:1:castep_labels:S:1 n_minim_iter=2 pbc="T T T"
P        0.48170926       4.56792218       3.93837951       0.00000000 NULL
P        1.60306837       2.56186922       8.10823905       0.00000000 NULL
P        0.55682390       0.42070254       1.45400639       0.00000000 NULL
P        1.52795373       6.70908887       5.62386593       0.00000000 NULL
P       -0.15127604       2.14837013       6.55023774       0.00000000 NULL
P        2.23605367       4.98142128       2.38037820       0.00000000 NULL
P        1.31424964       2.91069932       1.75189647       0.00000000 NULL
P        0.77052799       4.21909209       5.92175601       0.00000000 NULL
8
Lattice="2.9572821208511613 -0.08848106744184832 0.0 -1.0917475293424932 7.000021920482074 0.0 0.0 0.0 8.673845632640651" Properties=species:S:1:pos:R:3:initial_magmoms:R:1:castep_labels:S:1 n_minim_iter=3 pbc="T T T"
P        0.35383201       4.45274075       4.09331593       0.00000000 NULL
P        1.51170258       2.45880010       8.43023874       0.00000000 NULL
P        0.54317811       0.39629686       1.51299820       0.00000000 NULL
P        1.32235649       6.51524399       5.84992101       0.00000000 NULL
P       -0.20287581       2.10237451       6.80548822       0.00000000 NULL
P        2.06841040       4.80916634       2.46856540       0.00000000 NULL
P        1.22030586       2.80552801       1.83138166       0.00000000 NULL
P        0.64522873       4.10601284       6.16830448       0.00000000 NULL
8
Lattice="2.8904682426982338 -0.12831638163166348 0.0 -1.1674123293643688 6.905206978286753 0.0 0.0 0.0 8.678929953480912" Properties=species:S:1:pos:R:3:initial_magmoms:R:1:castep_labels:S:1 n_minim_iter=4 pbc="T T T"
P        0.28754012       4.37763327       4.09427543       0.00000000 NULL
P        1.43551579       2.39925733       8.43374040       0.00000000 NULL
P        0.52638671       0.38351967       1.51360236       0.00000000 NULL
P        1.19666920       6.39337093       5.85306734       0.00000000 NULL
P       -0.22135167       2.06804286       6.80709650       0.00000000 NULL
P        1.94440758       4.70884774       2.46763152       0.00000000 NULL
P        1.15022533       2.74040942       1.83655860       0.00000000 NULL
P        0.57283058       4.03648117       6.17602358       0.00000000 NULL
8
Lattice="2.7916919214053912 -0.17338754435874942 0.0 -1.2461280139936919 6.847719890524031 0.0 0.0 0.0 8.782830639728731" Properties=species:S:1:pos:R:3:initial_magmoms:R:1:castep_labels:S:1 n_minim_iter=5 pbc="T T T"
P        0.21005234       4.32342041       4.14219200       0.00000000 NULL
P        1.33551156       2.35091193       8.53360732       0.00000000 NULL
P        0.50327245       0.37207271       1.53121328       0.00000000 NULL
P        1.04229146       6.30225964       5.92262860       0.00000000 NULL
P       -0.23903406       2.03898933       6.88415760       0.00000000 NULL
P        1.78459797       4.63534301       2.49274228       0.00000000 NULL
P        1.05976969       2.68339747       1.86458367       0.00000000 NULL
P        0.48579422       3.99093488       6.25599899       0.00000000 NULL
8
Lattice="2.739237782277378 -0.18750396403689654 0.0 -1.264382450602832 6.901389905176004 0.0 0.0 0.0 8.89710949746125" Properties=species:S:1:pos:R:3:initial_magmoms:R:1:castep_labels:S:1 n_minim_iter=6 pbc="T T T"
P        0.18278536       4.35147270       4.19697226       0.00000000 NULL
P        1.29206998       2.36241324       8.64552701       0.00000000 NULL
P        0.49216946       0.37283921       1.55097582       0.00000000 NULL
P        0.98268587       6.34104672       5.99953057       0.00000000 NULL
P       -0.24229170       2.04734929       6.97051359       0.00000000 NULL
P        1.71714703       4.66653665       2.52195885       0.00000000 NULL
P        1.02163297       2.69153871       1.89134037       0.00000000 NULL
P        0.45322236       4.02234723       6.33989511       0.00000000 NULL
8
Lattice="2.608504442448525 -0.21442137474837653 0.0 -1.2900557507958632 7.041507479752467 0.0 0.0 0.0 9.182730419361897" Properties=species:S:1:pos:R:3:initial_magmoms:R:1:castep_labels:S:1 n_minim_iter=7 pbc="T T T"
P        0.12443936       4.42845310       4.33591804       0.00000000 NULL
P        1.19400933       2.39863301       8.92728325       0.00000000 NULL
P        0.46502493       0.37675710       1.60074190       0.00000000 NULL
P        0.85342376       6.45032901       6.19210711       0.00000000 NULL
P       -0.24745729       2.07184421       7.18521628       0.00000000 NULL
P        1.56590598       4.75524189       2.59385107       0.00000000 NULL
P        0.93632583       2.72002388       1.95693939       0.00000000 NULL
P        0.38212286       4.10706222       6.54830460       0.00000000 NULL
8
Lattice="2.494533875248792 -0.24963253869427163 0.0 -1.3406053461050347 7.125493684557655 0.0 0.0 0.0 9.574875829318335" Properties=species:S:1:pos:R:3:initial_magmoms:R:1:castep_labels:S:1 n_minim_iter=8 pbc="T T T"
P        0.05298420       4.46581155       4.53058024       0.00000000 NULL
P        1.10094433       2.41004960       9.31801815       0.00000000 NULL
P        0.43958264       0.37622811       1.67064788       0.00000000 NULL
P        0.71434589       6.49963304       6.45808580       0.00000000 NULL
P       -0.26219862       2.08003166       7.47699335       0.00000000 NULL
P        1.41612715       4.79582948       2.68955543       0.00000000 NULL
P        0.85308884       2.72103887       2.04452990       0.00000000 NULL
P        0.30083969       4.15482227       6.83196781       0.00000000 NULL
8
Lattice="2.354186359851341 -0.32074304229974765 0.0 -1.4694067759378773 7.120377027414403 0.0 0.0 0.0 10.156012915955696" Properties=species:S:1:pos:R:3:initial_magmoms:R:1:castep_labels:S:1 n_minim_iter=9 pbc="T T T"
P       -0.07900488       4.43173399       4.82590364       0.00000000 NULL
P        0.96378447       2.36789999       9.90391010       0.00000000 NULL
P        0.40499501       0.36481268       1.77789033       0.00000000 NULL
P        0.47978457       6.43482130       6.85589679       0.00000000 NULL
P       -0.30012415       2.05386914       7.90192837       0.00000000 NULL
P        1.18490374       4.74576484       2.82392192       0.00000000 NULL
P        0.72778462       2.65829247       2.17130499       0.00000000 NULL
P        0.15699496       4.14134152       7.24931145       0.00000000 NULL
8
Lattice="2.3579995774248963 -0.3539444680401821 0.0 -1.5501673066511017 7.094523826603189 0.0 0.0 0.0 10.244427568790124" Properties=species:S:1:pos:R:3:initial_magmoms:R:1:castep_labels:S:1 n_minim_iter=10 pbc="T T T"
P       -0.12711405       4.39844562       4.89281040       0.00000000 NULL
P        0.93494632       2.34213374      10.01502418       0.00000000 NULL
P        0.40394597       0.35779960       1.80338930       0.00000000 NULL
P        0.40388631       6.38277975       6.92560309       0.00000000 NULL
P       -0.31649328       2.02483732       7.94694127       0.00000000 NULL
P        1.12432556       4.71574204       2.82472748       0.00000000 NULL
P        0.70495215       2.60726837       2.17907067       0.00000000 NULL
P        0.10288012       4.13331099       7.30128445       0.00000000 NULL
8
Lattice="2.3186662333174963 -0.32794037607143034 0.0 -1.4761037431144801 7.074686045558838 0.0 0.0 0.0 10.147907568687426" Properties=species:S:1:pos:R:3:initial_magmoms:R:1:castep_labels:S:1 n_minim_iter=11 pbc="T T T"
P       -0.09236934       4.39240840       4.85824738       0.00000000 NULL
P        0.93493184       2.35433727       9.93220117       0.00000000 NULL
P        0.40212481       0.36077702       1.79108964       0.00000000 NULL
P        0.44043768       6.38596865       6.86504343       0.00000000 NULL
P       -0.29368335       2.01144129       7.86208081       0.00000000 NULL
P        1.13624584       4.73530437       2.78812703       0.00000000 NULL
P        0.71557265       2.60541678       2.15229984       0.00000000 NULL
P        0.12698984       4.14132888       7.22625362       0.00000000 NULL
8
Lattice="2.341188650220223 -0.3321489487623522 0.0 -1.4928956329977814 7.091733315548777 0.0 0.0 0.0 10.196438675363181" Properties=species:S:1:pos:R:3:initial_magmoms:R:1:castep_labels:S:1 n_minim_iter=12 pbc="T T T"
P       -0.09375775       4.40016685       4.88703485       0.00000000 NULL
P        0.94205076       2.35941751       9.98525419       0.00000000 NULL
P        0.40694092       0.35978631       1.80240429       0.00000000 NULL
P        0.44135210       6.39979805       6.90062363       0.00000000 NULL
P       -0.29546066       2.01187199       7.89366227       0.00000000 NULL
P        1.14375368       4.74771238       2.79544293       0.00000000 NULL
P        0.72320322       2.60625154       2.16030842       0.00000000 NULL
P        0.12508980       4.15333282       7.25852776       0.00000000 NULL
8
Lattice="2.3371573980225384 -0.3310908613690676 0.0 -1.4891590784956927 7.078450699813997 0.0 0.0 0.0 10.177806821872714" Properties=species:S:1:pos:R:3:initial_magmoms:R:1:castep_labels:S:1 n_minim_iter=13 pbc="T T T"
P       -0.09198445       4.39085227       4.88246002       0.00000000 NULL
P        0.93998277       2.35650757       9.97136344       0.00000000 NULL
P        0.40723746       0.35833707       1.80122957       0.00000000 NULL
P        0.44076086       6.38902276       6.89013298       0.00000000 NULL
P       -0.29313945       2.00507730       7.87483186       0.00000000 NULL
P        1.14113777       4.74228254       2.78592845       0.00000000 NULL
P        0.72371319       2.59906275       2.15429331       0.00000000 NULL
P        0.12428513       4.14829709       7.24319672       0.00000000 NULL
8
Lattice="2.3364248271254904 -0.3302455225441064 0.0 -1.486913837957147 7.073786317370186 0.0 0.0 0.0 10.172820988555037" Properties=species:S:1:pos:R:3:initial_magmoms:R:1:castep_labels:S:1 n_minim_iter=14 pbc="T T T"
P       -0.08959520       4.38647853       4.88575748       0.00000000 NULL
P        0.93910619       2.35706226       9.97216797       0.00000000 NULL
P        0.40849605       0.35681905       1.80318360       0.00000000 NULL
P        0.44101494       6.38672174       6.88959410       0.00000000 NULL
P       -0.29054210       1.99967175       7.86498172       0.00000000 NULL
P        1.14005309       4.74386904       2.77857123       0.00000000 NULL
P        0.72590186       2.59452357       2.15070480       0.00000000 NULL
P        0.12360913       4.14901722       7.23711530       0.00000000 NULL
8
Lattice="2.3225493081816166 -0.3201680680545731 0.0 -1.458618439629534 7.030051635811531 0.0 0.0 0.0 10.131015502561315" Properties=species:S:1:pos:R:3:initial_magmoms:R:1:castep_labels:S:1 n_minim_iter=15 pbc="T T T"
P       -0.06408065       4.34528893       4.91973422       0.00000000 NULL
P        0.92801152       2.36459464       9.98524197       0.00000000 NULL
P        0.42017820       0.34063981       1.82360527       0.00000000 NULL
P        0.44375267       6.36924376       6.88911302       0.00000000 NULL
P       -0.26362762       1.94872742       7.77438102       0.00000000 NULL
P        1.12755849       4.76115614       2.70887327       0.00000000 NULL
P        0.74569345       2.55503318       2.11825897       0.00000000 NULL
P        0.11823742       4.15485038       7.18376672       0.00000000 NULL
