12
Lattice="6.208389999999995 8.570958543005491e-16 -6.280278427541369e-18 -1.3623149802713286 6.326300691314657 -1.3129044290558279e-15 -2.3013053753746897 -0.7742883545345984 6.778628124495669" Properties=species:S:1:pos:R:3:initial_magmoms:R:1:castep_labels:S:1 n_minim_iter=1 pbc="T T T"
P       -0.16491717       0.06554198       4.24674951       0.00000000 NULL
P        2.70968681       5.48647036       2.53187861       0.00000000 NULL
P       -0.49845223       1.71966764       0.49789566       0.00000000 NULL
P        3.04322187       3.83234470       6.28073246       0.00000000 NULL
P        2.47250333       5.67356229       5.68941647       0.00000000 NULL
P        0.07226631      -0.12154995       1.08921165       0.00000000 NULL
P       -0.08602815       3.55532446       1.52595257       0.00000000 NULL
P        2.63079779       1.99668788       5.25267555       0.00000000 NULL
P        1.77273980      -0.39726701       4.92310815       0.00000000 NULL
P        0.77202984       5.94927935       1.85551997       0.00000000 NULL
P       -1.33214760       3.03773304       6.54120464       0.00000000 NULL
P        3.87691724       2.51427930       0.23742348       0.00000000 NULL
12
Lattice="6.217360533074671 -0.003247545493218786 0.0035096720989704873 -1.3675926192224053 6.34040805156627 -0.002719364296495837 -2.300393486355263 -0.7768125761733257 6.787450191197371" Properties=species:S:1:pos:R:3:initial_magmoms:R:1:castep_labels:S:1 n_minim_iter=2 pbc="T T T"
P       -0.16290655       0.06448643       4.25278280       0.00000000 NULL
P        2.71228098       5.49586150       2.53545770       0.00000000 NULL
P       -0.49968212       1.72347990       0.49787647       0.00000000 NULL
P        3.04905654       3.83686803       6.29036402       0.00000000 NULL
P        2.47637581       5.68275528       5.69706027       0.00000000 NULL
P        0.07299862      -0.12240735       1.09118023       0.00000000 NULL
P       -0.08711228       3.56249795       1.52734321       0.00000000 NULL
P        2.63648671       1.99784998       5.26089729       0.00000000 NULL
P        1.77823770      -0.40051935       4.93135012       0.00000000 NULL
P        0.77113673       5.96086728       1.85689038       0.00000000 NULL
P       -1.33160462       3.04286529       6.54892925       0.00000000 NULL
P        3.88097905       2.51748264       0.23931125       0.00000000 NULL
12
Lattice="6.422665687695038 -0.08090493903071061 0.08856779934191826 -1.4917752672339124 6.672260364159223 -0.06930225563209737 -2.2739394824854005 -0.8379018570317587 6.991077853968116" Properties=species:S:1:pos:R:3:initial_magmoms:R:1:castep_labels:S:1 n_minim_iter=3 pbc="T T T"
P       -0.11382889       0.03833282       4.39255000       0.00000000 NULL
P        2.77077983       5.71512075       2.61779340       0.00000000 NULL
P       -0.52829677       1.81307680       0.49652182       0.00000000 NULL
P        3.18524771       3.94037677       6.51382158       0.00000000 NULL
P        2.56619735       5.89661494       5.87311863       0.00000000 NULL
P        0.09075359      -0.14316138       1.13722477       0.00000000 NULL
P       -0.11249774       3.73059651       1.55826034       0.00000000 NULL
P        2.76944868       2.02285706       5.45208305       0.00000000 NULL
P        1.90787467      -0.47883740       5.12361925       0.00000000 NULL
P        0.74907627       6.23229097       1.88672415       0.00000000 NULL
P       -1.31557889       3.16161277       6.72609521       0.00000000 NULL
P        3.97252982       2.59184080       0.28424819       0.00000000 NULL
12
Lattice="6.381972512139886 -0.10742513599971436 0.1616378366488847 -1.509869784132049 6.773189716418304 -0.12251779989890794 -2.175766475753196 -0.8795523022503973 6.984841380172242" Properties=species:S:1:pos:R:3:initial_magmoms:R:1:castep_labels:S:1 n_minim_iter=4 pbc="T T T"
P       -0.06510945       0.01461040       4.39991714       0.00000000 NULL
P        2.76144570       5.77160188       2.62404428       0.00000000 NULL
P       -0.52562093       1.84048781       0.48316156       0.00000000 NULL
P        3.22195718       3.94572447       6.54079986       0.00000000 NULL
P        2.59413772       5.94118278       5.87796363       0.00000000 NULL
P        0.10219854      -0.15497050       1.14599779       0.00000000 NULL
P       -0.10724003       3.77694172       1.54342674       0.00000000 NULL
P        2.80357628       2.00927056       5.48053467       0.00000000 NULL
P        1.95332321      -0.51896466       5.15667166       0.00000000 NULL
P        0.74301304       6.30517693       1.86728975       0.00000000 NULL
P       -1.24005895       3.17654387       6.70773885       0.00000000 NULL
P        3.93639520       2.60966841       0.31622256       0.00000000 NULL
12
Lattice="6.270146555663962 -0.1520711600972701 0.31199003290056015 -1.5308256192877796 6.897041002113196 -0.23515075357214232 -1.9645851232011238 -0.9622976924933488 6.9527958180783145" Properties=species:S:1:pos:R:3:initial_magmoms:R:1:castep_labels:S:1 n_minim_iter=5 pbc="T T T"
P        0.03600730      -0.03786963       4.40275484       0.00000000 NULL
P        2.73872851       5.82054178       2.62688026       0.00000000 NULL
P       -0.51421318       1.87365159       0.45375843       0.00000000 NULL
P        3.28894900       3.90902056       6.57587667       0.00000000 NULL
P        2.65007355       5.96001255       5.86957829       0.00000000 NULL
P        0.12466227      -0.17734040       1.16005681       0.00000000 NULL
P       -0.09061549       3.82549971       1.50714285       0.00000000 NULL
P        2.86535130       1.95717244       5.52249225       0.00000000 NULL
P        2.03794868      -0.59486010       5.20971696       0.00000000 NULL
P        0.73678714       6.37753225       1.81991814       0.00000000 NULL
P       -1.07387034       3.16352915       6.64878817       0.00000000 NULL
P        3.84860615       2.61914299       0.38084693       0.00000000 NULL
12
Lattice="6.1484047972025575 -0.1981493912628423 0.5208977029753366 -1.5510650250597733 6.93986277386493 -0.38000130675897315 -1.6856158237957046 -1.0553099207555159 6.9723595963668" Properties=species:S:1:pos:R:3:initial_magmoms:R:1:castep_labels:S:1 n_minim_iter=6 pbc="T T T"
P        0.17626745      -0.10486094       4.44810678       0.00000000 NULL
P        2.73545650       5.79126440       2.66514921       0.00000000 NULL
P       -0.49534043       1.88332379       0.42119817       0.00000000 NULL
P        3.40706437       3.80307967       6.69205782       0.00000000 NULL
P        2.75596521       5.88844598       5.92608452       0.00000000 NULL
P        0.15575874      -0.20204252       1.18717147       0.00000000 NULL
P       -0.06008594       3.82385710       1.48051431       0.00000000 NULL
P        2.97180988       1.86254636       5.63274169       0.00000000 NULL
P        2.16486212      -0.67789840       5.32959022       0.00000000 NULL
P        0.74686183       6.36430187       1.78366577       0.00000000 NULL
P       -0.84187017       3.09449730       6.63237125       0.00000000 NULL
P        3.75359412       2.59190616       0.48088474       0.00000000 NULL
12
Lattice="5.988916684195716 -0.23300026815326524 0.78560181363909 -1.5515811139395608 6.898457609718728 -0.5460536476188057 -1.3331337456550763 -1.1520755137779697 7.142627449910488" Properties=species:S:1:pos:R:3:initial_magmoms:R:1:castep_labels:S:1 n_minim_iter=7 pbc="T T T"
P        0.35556001      -0.17934925       4.59883180       0.00000000 NULL
P        2.74864181       5.69273108       2.78334381       0.00000000 NULL
P       -0.46627898       1.86719255       0.39419615       0.00000000 NULL
P        3.57048081       3.64618928       6.98797946       0.00000000 NULL
P        2.90928668       5.73947744       6.13994104       0.00000000 NULL
P        0.19491515      -0.22609561       1.24223457       0.00000000 NULL
P       -0.00699886       3.77329506       1.49265631       0.00000000 NULL
P        3.11120068       1.74008677       5.88951931       0.00000000 NULL
P        2.32509863      -0.75842358       5.58908386       0.00000000 NULL
P        0.77910319       6.27180541       1.79309176       0.00000000 NULL
P       -0.53805883       2.97650042       6.76004696       0.00000000 NULL
P        3.64226066       2.53688140       0.62212865       0.00000000 NULL
12
Lattice="5.723191976844998 -0.24940421289283735 1.047747262004652 -1.5099882915643745 6.7225871660499354 -0.7332631909790006 -0.9463665500092364 -1.2629884334756214 7.342838173962928" Properties=species:S:1:pos:R:3:initial_magmoms:R:1:castep_labels:S:1 n_minim_iter=8 pbc="T T T"
P        0.53910709      -0.27055086       4.76777963       0.00000000 NULL
P        2.72773005       5.48074538       2.88954262       0.00000000 NULL
P       -0.42637803       1.80899465       0.36052334       0.00000000 NULL
P        3.69321517       3.40119987       7.29679891       0.00000000 NULL
P        3.03432863       5.45931858       6.35482206       0.00000000 NULL
P        0.23250851      -0.24912406       1.30250018       0.00000000 NULL
P        0.06073164       3.64507753       1.49946647       0.00000000 NULL
P        3.20610550       1.56511699       6.15785577       0.00000000 NULL
P        2.45448992      -0.84301357       5.86947809       0.00000000 NULL
P        0.81234721       6.05320809       1.78784415       0.00000000 NULL
P       -0.20796468       2.76625234       6.90629929       0.00000000 NULL
P        3.47480181       2.44394218       0.75102295       0.00000000 NULL
12
Lattice="5.709623434374828 -0.29060034963740644 1.2286833989360608 -1.5489894689548283 6.763831239407267 -0.8476310303747687 -0.7386441235513949 -1.3316628274196467 7.708862839806925" Properties=species:S:1:pos:R:3:initial_magmoms:R:1:castep_labels:S:1 n_minim_iter=9 pbc="T T T"
P        0.66311787      -0.31926022       5.02627321       0.00000000 NULL
P        2.75887197       5.46082828       3.06364199       0.00000000 NULL
P       -0.42088193       1.81048501       0.35657971       0.00000000 NULL
P        3.84287177       3.33108306       7.73333550       0.00000000 NULL
P        3.15876632       5.40671574       6.70069929       0.00000000 NULL
P        0.26322352      -0.26514768       1.38921591       0.00000000 NULL
P        0.09270948       3.65242689       1.57301883       0.00000000 NULL
P        3.32928037       1.48914117       6.51689638       0.00000000 NULL
P        2.59555319      -0.90763111       6.22777892       0.00000000 NULL
P        0.82643665       6.04919918       1.86213629       0.00000000 NULL
P       -0.02399129       2.71494164       7.23880445       0.00000000 NULL
P        3.44598113       2.42662642       0.85111076       0.00000000 NULL
12
Lattice="5.578837415867509 -0.2930174702577716 1.2506306044294229 -1.5227539521185856 6.680212534023697 -0.816601014472223 -0.6659002946079842 -1.2820587988438201 7.610116308484649" Properties=species:S:1:pos:R:3:initial_magmoms:R:1:castep_labels:S:1 n_minim_iter=10 pbc="T T T"
P        0.68489625      -0.29716620       4.97434251       0.00000000 NULL
P        2.70528692       5.40230246       3.06980339       0.00000000 NULL
P       -0.41161476       1.78983886       0.35378153       0.00000000 NULL
P        3.80179793       3.31529741       7.69036437       0.00000000 NULL
P        3.12407661       5.36297768       6.66410443       0.00000000 NULL
P        0.26610656      -0.25784142       1.38004147       0.00000000 NULL
P        0.10228619       3.61977625       1.57536821       0.00000000 NULL
P        3.28789698       1.48536002       6.46877769       0.00000000 NULL
P        2.57498482      -0.87188918       6.16628567       0.00000000 NULL
P        0.81519835       5.97702544       1.87786023       0.00000000 NULL
P        0.02916790       2.70960361       7.17362358       0.00000000 NULL
P        3.36101527       2.39553265       0.87052232       0.00000000 NULL
12
Lattice="5.598590044178425 -0.3029994234837312 1.2690043863753693 -1.5372598286891208 6.690540520240769 -0.8328062666817174 -0.6519158130466076 -1.2923985693651021 7.686670218817383" Properties=species:S:1:pos:R:3:initial_magmoms:R:1:castep_labels:S:1 n_minim_iter=11 pbc="T T T"
P        0.69833641      -0.30426039       5.02418708       0.00000000 NULL
P        2.71107800       5.39940291       3.09868126       0.00000000 NULL
P       -0.41486530       1.79066481       0.35273264       0.00000000 NULL
P        3.82427970       3.30447772       7.77013570       0.00000000 NULL
P        3.13933313       5.35550966       6.72514979       0.00000000 NULL
P        0.27008127      -0.26036713       1.39771855       0.00000000 NULL
P        0.10421280       3.62510325       1.59213586       0.00000000 NULL
P        3.30520160       1.47003928       6.53073248       0.00000000 NULL
P        2.59540865      -0.88228079       6.22961901       0.00000000 NULL
P        0.81400576       5.97742332       1.89324933       0.00000000 NULL
P        0.04381197       2.70183359       7.24451772       0.00000000 NULL
P        3.36560243       2.39330894       0.87835062       0.00000000 NULL
12
Lattice="5.587084238174992 -0.3101007006357657 1.2790576971442638 -1.5419712406135557 6.680131494256876 -0.8326785492002728 -0.6357885297207883 -1.2858010052904871 7.708525262316238" Properties=species:S:1:pos:R:3:initial_magmoms:R:1:castep_labels:S:1 n_minim_iter=12 pbc="T T T"
P        0.70736819      -0.30225391       5.03995052       0.00000000 NULL
P        2.70195628       5.38648369       3.11495389       0.00000000 NULL
P       -0.41613742       1.78727744       0.35124030       0.00000000 NULL
P        3.82546189       3.29695235       7.80366411       0.00000000 NULL
P        3.13711395       5.34418887       6.74929670       0.00000000 NULL
P        0.27221051      -0.25995908       1.40560771       0.00000000 NULL
P        0.10589239       3.62307733       1.60299133       0.00000000 NULL
P        3.30343208       1.46115246       6.55191308       0.00000000 NULL
P        2.60005356      -0.87926853       6.24896566       0.00000000 NULL
P        0.80927091       5.96349832       1.90593875       0.00000000 NULL
P        0.05726361       2.69831126       7.27117393       0.00000000 NULL
P        3.35206086       2.38591853       0.88373048       0.00000000 NULL
12
Lattice="5.5570543963609635 -0.3363120287174663 1.3048997546290868 -1.5620908915383722 6.643201139888718 -0.8307793645368305 -0.5931725439112189 -1.2627501776905752 7.78494324021905" Properties=species:S:1:pos:R:3:initial_magmoms:R:1:castep_labels:S:1 n_minim_iter=13 pbc="T T T"
P        0.73306222      -0.29513110       5.09253592       0.00000000 NULL
P        2.66872874       5.33927003       3.16652771       0.00000000 NULL
P       -0.42335894       1.77525628       0.34381989       0.00000000 NULL
P        3.82514990       3.26888265       7.91524374       0.00000000 NULL
P        3.12346240       5.30276772       6.82586304       0.00000000 NULL
P        0.27832856      -0.25862879       1.43320059       0.00000000 NULL
P        0.10945696       3.61687330       1.64113892       0.00000000 NULL
P        3.29233400       1.42726563       6.61792471       0.00000000 NULL
P        2.61172310      -0.86869210       6.31063623       0.00000000 NULL
P        0.79006786       5.91283104       1.94842740       0.00000000 NULL
P        0.09310760       2.68415546       7.36407959       0.00000000 NULL
P        3.30868336       2.35998348       0.89498404       0.00000000 NULL
12
Lattice="5.5654286373347865 -0.3671867691187978 1.3006971164705017 -1.595389580163306 6.6164114271284244 -0.8229803312468094 -0.5970147405265381 -1.2398290607203397 7.831036697647266" Properties=species:S:1:pos:R:3:initial_magmoms:R:1:castep_labels:S:1 n_minim_iter=14 pbc="T T T"
P        0.73949457      -0.28655288       5.11751573       0.00000000 NULL
P        2.63352974       5.29594847       3.19123775       0.00000000 NULL
P       -0.44094684       1.76653577       0.32575529       0.00000000 NULL
P        3.81397115       3.24285982       7.98299819       0.00000000 NULL
P        3.09299195       5.26742855       6.85470300       0.00000000 NULL
P        0.28003237      -0.25803295       1.45405048       0.00000000 NULL
P        0.10507245       3.62018717       1.67176175       0.00000000 NULL
P        3.26795187       1.38920843       6.63699173       0.00000000 NULL
P        2.61013001      -0.85816584       6.33116018       0.00000000 NULL
P        0.76289431       5.86756144       1.97759330       0.00000000 NULL
P        0.09062920       2.67067968       7.42742673       0.00000000 NULL
P        3.28239511       2.33871592       0.88132675       0.00000000 NULL
12
Lattice="5.507705750782324 -0.39020024802606723 1.3044468667458051 -1.6061739275489704 6.597701696580636 -0.8134750751441545 -0.5686538900489467 -1.2173239953050212 7.821198813783271" Properties=species:S:1:pos:R:3:initial_magmoms:R:1:castep_labels:S:1 n_minim_iter=15 pbc="T T T"
P        0.75027283      -0.27653388       5.11026343       0.00000000 NULL
P        2.58260510       5.26671133       3.20190718       0.00000000 NULL
P       -0.45118187       1.76154347       0.30421335       0.00000000 NULL
P        3.78405980       3.22863398       8.00795726       0.00000000 NULL
P        3.05103859       5.24774982       6.85039172       0.00000000 NULL
P        0.28183934      -0.25757237       1.46177889       0.00000000 NULL
P        0.10505613       3.62479822       1.68928635       0.00000000 NULL
P        3.22782180       1.36537923       6.62288425       0.00000000 NULL
P        2.59621859      -0.84691685       6.31832024       0.00000000 NULL
P        0.73665934       5.83709430       1.99385037       0.00000000 NULL
P        0.10708165       2.66545603       7.43691769       0.00000000 NULL
P        3.22579628       2.32472142       0.87525291       0.00000000 NULL
12
Lattice="5.543992186190093 -0.40152659625179227 1.3099609525851248 -1.625677766571187 6.618088668764482 -0.8317479885205027 -0.5746712910136436 -1.2335995393541934 7.870016730760202" Properties=species:S:1:pos:R:3:initial_magmoms:R:1:castep_labels:S:1 n_minim_iter=16 pbc="T T T"
P        0.75448190      -0.28603029       5.13834828       0.00000000 NULL
P        2.58916123       5.26899283       3.20988141       0.00000000 NULL
P       -0.45879956       1.76553447       0.29640643       0.00000000 NULL
P        3.80244269       3.21742807       8.05182326       0.00000000 NULL
P        3.05979554       5.24449885       6.87586520       0.00000000 NULL
P        0.28384759      -0.26153632       1.47236449       0.00000000 NULL
P        0.10299537       3.63428674       1.69558519       0.00000000 NULL
P        3.24064776       1.34867580       6.65264450       0.00000000 NULL
P        2.61132438      -0.86245943       6.35412931       0.00000000 NULL
P        0.73231874       5.84542197       1.99410039       0.00000000 NULL
P        0.10374537       2.65607238       7.47744222       0.00000000 NULL
P        3.23989775       2.32689016       0.87078748       0.00000000 NULL
12
Lattice="5.537055604562084 -0.4066680130726063 1.3117754908491672 -1.6293947269625522 6.619294226385468 -0.8321324604297332 -0.5694776398630157 -1.2316885318065305 7.868403338650476" Properties=species:S:1:pos:R:3:initial_magmoms:R:1:castep_labels:S:1 n_minim_iter=17 pbc="T T T"
P        0.75727679      -0.28513839       5.13686733       0.00000000 NULL
P        2.58090644       5.26607607       3.21117904       0.00000000 NULL
P       -0.46168612       1.76582802       0.29037678       0.00000000 NULL
P        3.79986936       3.21510966       8.05766959       0.00000000 NULL
P        3.05348988       5.24302405       6.87406099       0.00000000 NULL
P        0.28469336      -0.26208637       1.47398538       0.00000000 NULL
P        0.10317909       3.63756269       1.69844407       0.00000000 NULL
P        3.23500415       1.34337499       6.64960230       0.00000000 NULL
P        2.61072838      -0.86230820       6.35217536       0.00000000 NULL
P        0.72745486       5.84324588       1.99587101       0.00000000 NULL
P        0.10707025       2.65482234       7.47904209       0.00000000 NULL
P        3.23111299       2.32611534       0.86900427       0.00000000 NULL
12
Lattice="5.534091166370726 -0.4142642391457476 1.3147346857861717 -1.6364847312473532 6.6242753870114175 -0.8358065786602245 -0.564200421621663 -1.2325194814649127 7.875580389178695" Properties=species:S:1:pos:R:3:initial_magmoms:R:1:castep_labels:S:1 n_minim_iter=18 pbc="T T T"
P        0.76120408      -0.28580028       5.14034737       0.00000000 NULL
P        2.57220193       5.26329194       3.21416113       0.00000000 NULL
P       -0.46624756       1.76691745       0.28189035       0.00000000 NULL
P        3.79965357       3.21057421       8.07261815       0.00000000 NULL
P        3.04734233       5.24095534       6.87672747       0.00000000 NULL
P        0.28606368      -0.26346367       1.47778103       0.00000000 NULL
P        0.10321116       3.64299442       1.70301572       0.00000000 NULL
P        3.23019486       1.33449725       6.65149278       0.00000000 NULL
P        2.61221874      -0.86487080       6.35645215       0.00000000 NULL
P        0.72118727       5.84236246       1.99805635       0.00000000 NULL
P        0.11055581       2.65156881       7.48840856       0.00000000 NULL
P        3.22285020       2.32592286       0.86609994       0.00000000 NULL
12
Lattice="5.495212794995367 -0.5046501206592653 1.3561287997634996 -1.7200561043361675 6.690153866075488 -0.8839862490061838 -0.4933203632333425 -1.246542967931493 7.968879555902565" Properties=species:S:1:pos:R:3:initial_magmoms:R:1:castep_labels:S:1 n_minim_iter=19 pbc="T T T"
P        0.81191432      -0.29543717       5.18701117       0.00000000 NULL
P        2.46992201       5.23439794       3.25401093       0.00000000 NULL
P       -0.52135876       1.78275405       0.17553218       0.00000000 NULL
P        3.80319508       3.15620673       8.26548992       0.00000000 NULL
P        2.97691430       5.22031263       6.91565274       0.00000000 NULL
P        0.30492203      -0.28135185       1.52536937       0.00000000 NULL
P        0.10522761       3.71020698       1.76031286       0.00000000 NULL
P        3.17660872       1.22875380       6.68070925       0.00000000 NULL
P        2.63330827      -0.89847594       6.41498552       0.00000000 NULL
P        0.64852806       5.83743671       2.02603658       0.00000000 NULL
P        0.15942494       2.60993895       7.60836745       0.00000000 NULL
P        3.12241138       2.32902182       0.83265466       0.00000000 NULL
12
Lattice="5.417186442062858 -0.45856801150839704 1.4232656136515096 -1.6559773740318027 6.992999795846653 -0.9133418905350487 -0.39684170777405975 -1.3175973620777166 8.034553173880724" Properties=species:S:1:pos:R:3:initial_magmoms:R:1:castep_labels:S:1 n_minim_iter=20 pbc="T T T"
P        0.87359391      -0.28693457       5.22441928       0.00000000 NULL
P        2.49077345       5.50376899       3.32005761       0.00000000 NULL
P       -0.52957769       1.87251127       0.08996923       0.00000000 NULL
P        3.89394505       3.34432315       8.45450767       0.00000000 NULL
P        3.03292888       5.51423546       6.98445250       0.00000000 NULL
P        0.33143848      -0.29740104       1.56002440       0.00000000 NULL
P        0.17951588       3.91142715       1.81225368       0.00000000 NULL
P        3.18485148       1.30540728       6.73222322       0.00000000 NULL
P        2.65507586      -0.91415965       6.46828679       0.00000000 NULL
P        0.70929150       6.13099408       2.07619010       0.00000000 NULL
P        0.28570106       2.69374295       7.70641347       0.00000000 NULL
P        3.07866630       2.52309147       0.83806343       0.00000000 NULL
12
Lattice="5.4245332735183815 -0.5243618955261355 1.4543757115039349 -1.7246329501948896 6.777013059603583 -1.024385387890268 -0.35739187943979184 -1.3766754930837477 7.955953690970214" Properties=species:S:1:pos:R:3:initial_magmoms:R:1:castep_labels:S:1 n_minim_iter=21 pbc="T T T"
P        0.89421904      -0.35753708       5.17067110       0.00000000 NULL
P        2.44828940       5.23351275       3.21527292       0.00000000 NULL
P       -0.54801047       1.81252106       0.05157351       0.00000000 NULL
P        3.89051892       3.06345461       8.33437050       0.00000000 NULL
P        3.00176093       5.19075308       6.83669539       0.00000000 NULL
P        0.34074752      -0.31477740       1.54924862       0.00000000 NULL
P        0.14933960       3.75102930       1.73003989       0.00000000 NULL
P        3.19316884       1.12494637       6.65590413       0.00000000 NULL
P        2.68468467      -0.99744461       6.42251953       0.00000000 NULL
P        0.65782377       5.87342028       1.96342449       0.00000000 NULL
P        0.28685161       2.48506649       7.57649514       0.00000000 NULL
P        3.05565684       2.39090918       0.80944888       0.00000000 NULL
12
Lattice="5.4240592129100405 -0.5246661213205605 1.4394775796469466 -1.7248389301647777 6.821790908419905 -0.9943473132483611 -0.3734447335440242 -1.3533520759584896 8.024222652144513" Properties=species:S:1:pos:R:3:initial_magmoms:R:1:castep_labels:S:1 n_minim_iter=22 pbc="T T T"
P        0.88560988      -0.33795756       5.21104893       0.00000000 NULL
P        2.44016567       5.28173027       3.25830399       0.00000000 NULL
P       -0.55024567       1.82767206       0.06057204       0.00000000 NULL
P        3.87602122       3.11610065       8.40878088       0.00000000 NULL
P        2.98625307       5.25356312       6.90648591       0.00000000 NULL
P        0.33952248      -0.30979041       1.56286701       0.00000000 NULL
P        0.14672767       3.78562449       1.76575825       0.00000000 NULL
P        3.17904788       1.15814823       6.70359467       0.00000000 NULL
P        2.67272975      -0.97976031       6.46170368       0.00000000 NULL
P        0.65304580       5.92353302       2.00764924       0.00000000 NULL
P        0.27152466       2.53155079       7.65594336       0.00000000 NULL
P        3.05425089       2.41222192       0.81340956       0.00000000 NULL
