6
Lattice="5.205049999999999 6.616913591945424e-16 -3.474110230117109e-16 1.0523313389875988 5.097562579849762 1.2858320456309495e-15 1.0523313389875983 0.8572795175200681 5.024959311708416" Properties=species:S:1:pos:R:3:initial_magmoms:R:1:castep_labels:S:1 n_minim_iter=1 pbc="T T T"
P        2.32854568       3.46917142       3.95317871       0.00000000 NULL
P        3.86830483       4.16243540       0.89176596       0.00000000 NULL
P        4.85855340       1.37465476       2.75493746       0.00000000 NULL
P        2.55366291       1.97141301       0.41316120       0.00000000 NULL
P        2.44698912       0.76083938       2.00293119       0.00000000 NULL
P        1.23984779       2.35155767       1.87385155       0.00000000 NULL
6
Lattice="5.208557355900718 -0.0012861672449993656 -0.0010853248446380922 1.051780831790122 5.101257537687402 -0.0010853248446378368 1.0517808317901205 0.8568310479866055 5.028784167067496" Properties=species:S:1:pos:R:3:initial_magmoms:R:1:castep_labels:S:1 n_minim_iter=2 pbc="T T T"
P        2.32833583       3.47072382       3.95525750       0.00000000 NULL
P        3.86978274       4.16439724       0.89090439       0.00000000 NULL
P        4.86077352       1.37398216       2.75611815       0.00000000 NULL
P        2.55516288       1.97238276       0.41211465       0.00000000 NULL
P        2.44824211       0.76002181       2.00436200       0.00000000 NULL
P        1.23930042       2.35320227       1.87498350       0.00000000 NULL
6
Lattice="5.339817693805134 -0.049973142328534365 -0.04216954921273474 1.0306368398651666 5.239650562999532 -0.042169549212733574 1.0306368398651655 0.8396061393249353 5.172115410934872" Properties=species:S:1:pos:R:3:initial_magmoms:R:1:castep_labels:S:1 n_minim_iter=3 pbc="T T T"
P        2.31965969       3.52862922       4.03270066       0.00000000 NULL
P        3.92473827       4.23733960       0.85796418       0.00000000 NULL
P        4.94332022       1.34808229       2.80017487       0.00000000 NULL
P        2.61146999       2.00864525       0.37185692       0.00000000 NULL
P        2.49513964       0.72837838       2.05826430       0.00000000 NULL
P        1.21779197       2.41513684       1.91749982       0.00000000 NULL
6
Lattice="5.349794886351554 -0.07083767128169362 -0.05977596216764654 1.0122203155962155 5.253640008070608 -0.05977596216764558 1.0122203155962142 0.824603156467015 5.188866555847996" Properties=species:S:1:pos:R:3:initial_magmoms:R:1:castep_labels:S:1 n_minim_iter=4 pbc="T T T"
P        2.29357770       3.52343710       4.02991487       0.00000000 NULL
P        3.91438024       4.23047428       0.83428788       0.00000000 NULL
P        4.93450254       1.32327064       2.79552520       0.00000000 NULL
P        2.61531906       2.00971981       0.34604155       0.00000000 NULL
P        2.49697020       0.70352810       2.06610752       0.00000000 NULL
P        1.19382495       2.42401478       1.92290057       0.00000000 NULL
6
Lattice="5.319593095131665 -0.09339396600905116 -0.07880996195715226 0.9840237727509995 5.228622222471257 -0.07880996195715086 0.9840237727509984 0.8016329019943732 5.167406123565675" Properties=species:S:1:pos:R:3:initial_magmoms:R:1:castep_labels:S:1 n_minim_iter=5 pbc="T T T"
P        2.24471265       3.49208440       3.99417774       0.00000000 NULL
P        3.87379570       4.18826401       0.79937204       0.00000000 NULL
P        4.88495875       1.28360295       2.77062912       0.00000000 NULL
P        2.60198169       1.99769712       0.31142535       0.00000000 NULL
P        2.48249931       0.66761702       2.06144924       0.00000000 NULL
P        1.15572981       2.41826047       1.91687068       0.00000000 NULL
6
Lattice="5.228726059804581 -0.1144807016497043 -0.09660388274941566 0.9450014418437916 5.143894858416422 -0.09660388274941413 0.9450014418437908 0.7698434419894823 5.086877991404053" Properties=species:S:1:pos:R:3:initial_magmoms:R:1:castep_labels:S:1 n_minim_iter=6 pbc="T T T"
P        2.16257108       3.42916381       3.90487417       0.00000000 NULL
P        3.79556747       4.08884287       0.74763087       0.00000000 NULL
P        4.77177492       1.22309479       2.72362325       0.00000000 NULL
P        2.57038898       1.96780921       0.26216405       0.00000000 NULL
P        2.44684134       0.61487018       2.04519064       0.00000000 NULL
P        1.09686307       2.39815393       1.89569294       0.00000000 NULL
6
Lattice="5.187715677812126 -0.12404672884077995 -0.10467611986735245 0.9273416821024718 5.105665377733756 -0.10467611986735295 0.9273416821024694 0.755456955766309 5.050550546964554" Properties=species:S:1:pos:R:3:initial_magmoms:R:1:castep_labels:S:1 n_minim_iter=7 pbc="T T T"
P        2.11253335       3.41764105       3.84850873       0.00000000 NULL
P        3.77416629       4.02543072       0.71110007       0.00000000 NULL
P        4.70534549       1.18571554       2.72174384       0.00000000 NULL
P        2.57331788       1.95344405       0.23065521       0.00000000 NULL
P        2.43336498       0.58478094       2.05618009       0.00000000 NULL
P        1.06467060       2.40779035       1.88683136       0.00000000 NULL
6
Lattice="5.1105863976513675 -0.13449800206007792 -0.11349536676320536 0.9015126164948019 5.032241850578927 -0.11349536676320533 0.9015126164947999 0.7344153616582783 4.979655943692804" Properties=species:S:1:pos:R:3:initial_magmoms:R:1:castep_labels:S:1 n_minim_iter=8 pbc="T T T"
P        2.05657319       3.37034598       3.77694480       0.00000000 NULL
P        3.71653414       3.94727740       0.67853701       0.00000000 NULL
P        4.61715429       1.14678142       2.68715760       0.00000000 NULL
P        2.54049356       1.92098766       0.21022981       0.00000000 NULL
P        2.39494257       0.56034377       2.03439491       0.00000000 NULL
P        1.03297002       2.38081810       1.85827226       0.00000000 NULL
6
Lattice="5.097191435774352 -0.14416398433255248 -0.12165195040264917 0.8893381152513203 5.021077723364901 -0.12165195040264942 0.8893381152513181 0.7244974297623222 4.97002255280354" Properties=species:S:1:pos:R:3:initial_magmoms:R:1:castep_labels:S:1 n_minim_iter=9 pbc="T T T"
P        2.03527347       3.35881853       3.76029694       0.00000000 NULL
P        3.70093846       3.92775049       0.66307136       0.00000000 NULL
P        4.59487757       1.12963134       2.67859408       0.00000000 NULL
P        2.53309828       1.91184986       0.20060040       0.00000000 NULL
P        2.38449834       0.54994419       2.03069604       0.00000000 NULL
P        1.02067363       2.37580532       1.85088404       0.00000000 NULL
6
Lattice="5.056061920227534 -0.1748826854344141 -0.147573749943492 0.8509384112320046 4.987008112599139 -0.14757374994349115 0.8509384112320034 0.6932151914453841 4.940797569740269" Properties=species:S:1:pos:R:3:initial_magmoms:R:1:castep_labels:S:1 n_minim_iter=10 pbc="T T T"
P        1.96976163       3.32124347       3.71036945       0.00000000 NULL
P        3.65089449       3.86902179       0.61571124       0.00000000 NULL
P        4.52724401       1.07670027       2.64995072       0.00000000 NULL
P        2.50817084       1.88325891       0.17145994       0.00000000 NULL
P        2.35145809       0.51808530       2.01722980       0.00000000 NULL
P        0.98279273       2.35817233       1.82760097       0.00000000 NULL
6
Lattice="5.0062639683134895 -0.21961929188238602 -0.18532447842112182 0.7970577383479417 4.947283144872597 -0.18532447842112165 0.7970577383479399 0.6493214143217796 4.907987100507265" Properties=species:S:1:pos:R:3:initial_magmoms:R:1:castep_labels:S:1 n_minim_iter=11 pbc="T T T"
P        1.88214587       3.26914013       3.64952614       0.00000000 NULL
P        3.58215339       3.79638615       0.55174317       0.00000000 NULL
P        4.44221060       1.00479117       2.60882176       0.00000000 NULL
P        2.47225975       1.84519165       0.13268162       0.00000000 NULL
P        2.30691662       0.47523898       1.99666936       0.00000000 NULL
P        0.93182605       2.33202548       1.79659742       0.00000000 NULL
6
Lattice="4.952359941101258 -0.2810358363846664 -0.23715047685120566 0.726011432131561 4.906909162392466 -0.237150476851206 0.7260114321315588 0.5914436900174199 4.876903960319545" Properties=species:S:1:pos:R:3:initial_magmoms:R:1:castep_labels:S:1 n_minim_iter=12 pbc="T T T"
P        1.77083964       3.20446061       3.58054327       0.00000000 NULL
P        3.49630620       3.71225263       0.46877954       0.00000000 NULL
P        4.34245833       0.91173060       2.55666460       0.00000000 NULL
P        2.42651401       1.79781994       0.08253271       0.00000000 NULL
P        2.25127452       0.41988062       1.97038112       0.00000000 NULL
P        0.86636142       2.29882954       1.75833417       0.00000000 NULL
6
Lattice="4.902346191550036 -0.35129774316218204 -0.2964405834479883 0.647088942854612 4.8721334327162324 -0.29644058344798857 0.6470889428546097 0.5271496497069629 4.8525946103625905" Properties=species:S:1:pos:R:3:initial_magmoms:R:1:castep_labels:S:1 n_minim_iter=13 pbc="T T T"
P        1.64960325       3.13838983       3.51301568       0.00000000 NULL
P        3.40708885       3.62796546       0.37626186       0.00000000 NULL
P        4.24187421       0.80870222       2.50289126       0.00000000 NULL
P        2.37816608       1.74631267       0.02663522       0.00000000 NULL
P        2.19105616       0.35856756       1.94337169       0.00000000 NULL
P        0.79413986       2.26437143       1.71696103       0.00000000 NULL
6
Lattice="4.878069117004484 -0.42831807039087466 -0.3614337443362674 0.5667509126086019 4.863929284308476 -0.3614337443362664 0.5667509126086007 0.4617024419158583 4.855437497221792" Properties=species:S:1:pos:R:3:initial_magmoms:R:1:castep_labels:S:1 n_minim_iter=14 pbc="T T T"
P        1.52928052       3.09032659       3.46458163       0.00000000 NULL
P        3.33569188       3.56203809       0.27782636       0.00000000 NULL
P        4.16287360       0.70215110       2.46365794       0.00000000 NULL
P        2.33999569       1.69802754      -0.03350768       0.00000000 NULL
P        2.13605105       0.29463627       1.92625947       0.00000000 NULL
P        0.72040813       2.24061721       1.67947811       0.00000000 NULL
6
Lattice="4.885427374484154 -0.5112742841905121 -0.4314358690241197 0.4869954508388119 4.8879072675221575 -0.4314358690241202 0.4869954508388094 0.39672982231168114 4.8908465333789675" Properties=species:S:1:pos:R:3:initial_magmoms:R:1:castep_labels:S:1 n_minim_iter=15 pbc="T T T"
P        1.41359830       3.06506811       3.44234202       0.00000000 NULL
P        3.28756695       3.52192101       0.17492069       0.00000000 NULL
P        4.11385530       0.59414885       2.44249935       0.00000000 NULL
P        2.31360618       1.65515686      -0.09678171       0.00000000 NULL
P        2.08873037       0.22937468       1.91996802       0.00000000 NULL
P        0.64692717       2.22884053       1.64785910       0.00000000 NULL
6
Lattice="4.871316795665621 -0.6488627075547077 -0.5475390700598897 0.3493955041209423 4.901905029546089 -0.5475390700598898 0.3493955041209399 0.28463431440200654 4.924170514817311" Properties=species:S:1:pos:R:3:initial_magmoms:R:1:castep_labels:S:1 n_minim_iter=16 pbc="T T T"
P        1.21165505       3.00393769       3.39535918       0.00000000 NULL
P        3.18687102       3.44442545       0.00004885       0.00000000 NULL
P        4.01760186       0.40781779       2.39014091       0.00000000 NULL
P        2.24803677       1.57307330      -0.20002406       0.00000000 NULL
P        1.99508539       0.11959429       1.89038888       0.00000000 NULL
P        0.52048113       2.18799181       1.58430736       0.00000000 NULL
6
Lattice="4.897483395043408 -0.6267252167350884 -0.528858475543196 0.37636607642549963 4.923055624155958 -0.5288584755431956 0.37636607642549763 0.3066058345457809 4.941878269232251" Properties=species:S:1:pos:R:3:initial_magmoms:R:1:castep_labels:S:1 n_minim_iter=17 pbc="T T T"
P        1.25048068       3.05201020       3.44359515       0.00000000 NULL
P        3.24180038       3.49673455       0.01983845       0.00000000 NULL
P        4.07993609       0.43459394       2.42941667       0.00000000 NULL
P        2.25966083       1.57577824      -0.18548173       0.00000000 NULL
P        2.00008456       0.13575203       1.89862602       0.00000000 NULL
P        0.53731591       2.19638563       1.58452812       0.00000000 NULL
6
Lattice="4.825545462578939 -0.6436052160819276 -0.5431025660686178 0.3452906028349159 4.856015968381687 -0.5431025660686181 0.34529060283491353 0.28129026518140876 4.87818893331966" Properties=species:S:1:pos:R:3:initial_magmoms:R:1:castep_labels:S:1 n_minim_iter=18 pbc="T T T"
P        1.19703948       2.99332603       3.38522126       0.00000000 NULL
P        3.17352359       3.43238552      -0.01024124       0.00000000 NULL
P        4.00311205       0.39588529       2.38138532       0.00000000 NULL
P        2.21338777       1.54170098      -0.20077399       0.00000000 NULL
P        1.95735576       0.11421498       1.86331718       0.00000000 NULL
P        0.50758491       2.15527446       1.55350799       0.00000000 NULL
