9
Lattice="4.73693 -3.0524366478597004e-16 8.324277297680517e-16 0.6937790241031419 6.704519697048737 -2.2067416342861554e-16 1.8442165087825975 1.5977492232724024 6.311023205817432" Properties=species:S:1:pos:R:3:initial_magmoms:R:1:castep_labels:S:1 n_minim_iter=1 pbc="T T T"
P        2.94546186       3.67067130       5.12357705       0.00000000 NULL
P        4.15518247       2.13001372       0.61795520       0.00000000 NULL
P        1.10937541       0.79837083       1.97289780       0.00000000 NULL
P        1.48726189       5.81667309       0.86922985       0.00000000 NULL
P        2.68067580       5.72530425       2.48521404       0.00000000 NULL
P        1.67574486       4.68946761       3.91034911       0.00000000 NULL
P        1.47474242       2.38509965       0.77196310       0.00000000 NULL
P        2.72140071       2.57100612       2.89471299       0.00000000 NULL
P        2.51262522       7.87994562       5.34830691       0.00000000 NULL
9
Lattice="4.738261670775209 -0.00033305209189909247 0.003817365011071108 0.6935026702073864 6.711027940805491 -0.0032114358661535897 1.8497085119738448 1.5956329198621053 6.321580670530064" Properties=species:S:1:pos:R:3:initial_magmoms:R:1:castep_labels:S:1 n_minim_iter=2 pbc="T T T"
P        2.95024455       3.67087265       5.13175316       0.00000000 NULL
P        4.15654618       2.13150660       0.62111299       0.00000000 NULL
P        1.11104776       0.79818587       1.97676342       0.00000000 NULL
P        1.48775532       5.82153301       0.86821052       0.00000000 NULL
P        2.68357008       5.72919002       2.48822068       0.00000000 NULL
P        1.67866448       4.69168162       3.91523623       0.00000000 NULL
P        1.47592625       2.38723364       0.77324703       0.00000000 NULL
P        2.72433674       2.57171331       2.89999611       0.00000000 NULL
P        2.51704473       7.88456355       5.35424419       0.00000000 NULL
9
Lattice="4.775163338382559 -0.01058568997848784 0.11661630346878266 0.6843960526899332 6.897771925923701 -0.10018199819836891 2.0108994602423396 1.5296716123981495 6.630138183297638" Properties=species:S:1:pos:R:3:initial_magmoms:R:1:castep_labels:S:1 n_minim_iter=3 pbc="T T T"
P        3.08945373       3.67196543       5.36992294       0.00000000 NULL
P        4.19465565       2.17331556       0.71336318       0.00000000 NULL
P        1.16012060       0.79124931       2.08979733       0.00000000 NULL
P        1.50092259       5.96017431       0.83555624       0.00000000 NULL
P        2.76700344       5.83822415       2.57462713       0.00000000 NULL
P        1.76390323       4.75181648       4.05616631       0.00000000 NULL
P        1.50991138       2.44783194       0.81030505       0.00000000 NULL
P        2.80941159       2.58940893       3.05392801       0.00000000 NULL
P        2.64566698       8.01281664       5.52476258       0.00000000 NULL
9
Lattice="4.7332462542594085 -0.005773959604903882 0.18870536277810632 0.6850671935660644 6.878278307026072 -0.15832177978757192 2.092247397854619 1.4620653990658834 6.691662354184705" Properties=species:S:1:pos:R:3:initial_magmoms:R:1:castep_labels:S:1 n_minim_iter=4 pbc="T T T"
P        3.14388881       3.60375235       5.41326862       0.00000000 NULL
P        4.16796249       2.16538230       0.75988055       0.00000000 NULL
P        1.17830864       0.77402319       2.11994305       0.00000000 NULL
P        1.50161304       5.93231250       0.79712650       0.00000000 NULL
P        2.79687582       5.79613239       2.57974479       0.00000000 NULL
P        1.80767239       4.69581028       4.06423580       0.00000000 NULL
P        1.51665398       2.44001771       0.81837805       0.00000000 NULL
P        2.83207741       2.55586469       3.09036492       0.00000000 NULL
P        2.71365559       7.94128953       5.52545075       0.00000000 NULL
9
Lattice="4.653745112173741 0.01382970230964952 0.311989923123146 0.7011697985589873 6.79577848599553 -0.2608543845420968 2.232159986419862 1.3358413829749083 6.710750148166659" Properties=species:S:1:pos:R:3:initial_magmoms:R:1:castep_labels:S:1 n_minim_iter=5 pbc="T T T"
P        3.23929633       3.46282707       5.41765788       0.00000000 NULL
P        4.11952593       2.14538586       0.82967413       0.00000000 NULL
P        1.21086104       0.74051428       2.14412835       0.00000000 NULL
P        1.51311073       5.84371621       0.71551235       0.00000000 NULL
P        2.85746901       5.68646670       2.55236581       0.00000000 NULL
P        1.89091606       4.56454841       4.02326765       0.00000000 NULL
P        1.53196912       2.41168613       0.82037349       0.00000000 NULL
P        2.87306458       2.48505322       3.11071134       0.00000000 NULL
P        2.84611785       7.76459178       5.45290755       0.00000000 NULL
9
Lattice="4.662917503369775 0.05603844262310066 0.4684563997283077 0.762254286493543 6.696615396373933 -0.40206857242531957 2.458428565881142 1.1726721794019983 6.6737866739542415" Properties=species:S:1:pos:R:3:initial_magmoms:R:1:castep_labels:S:1 n_minim_iter=6 pbc="T T T"
P        3.44009373       3.28369864       5.37037849       0.00000000 NULL
P        4.15637065       2.13551853       0.90669813       0.00000000 NULL
P        1.28280122       0.70210008       2.15782659       0.00000000 NULL
P        1.57965830       5.73334788       0.58746548       0.00000000 NULL
P        3.02287080       5.55705542       2.48349163       0.00000000 NULL
P        2.04701511       4.39408280       3.93001487       0.00000000 NULL
P        1.59847262       2.38293089       0.81475404       0.00000000 NULL
P        3.00034321       2.40384021       3.10059269       0.00000000 NULL
P        3.10527524       7.54941627       5.30462128       0.00000000 NULL
9
Lattice="4.7412688516424675 0.1118483751130041 0.5518773002747481 0.852721596251407 6.6276061779719555 -0.46667649501668085 2.618899243188025 1.103690145119027 6.70999982515859" Properties=species:S:1:pos:R:3:initial_magmoms:R:1:castep_labels:S:1 n_minim_iter=7 pbc="T T T"
P        3.61540510       3.19278124       5.38756610       0.00000000 NULL
P        4.24930278       2.15226004       0.94769973       0.00000000 NULL
P        1.34577019       0.69751282       2.19504637       0.00000000 NULL
P        1.66884287       5.65288364       0.51541186       0.00000000 NULL
P        3.21155954       5.49651518       2.47344762       0.00000000 NULL
P        2.17147756       4.29591030       3.92636528       0.00000000 NULL
P        1.67648840       2.37741162       0.83074879       0.00000000 NULL
P        3.13374449       2.38162684       3.12097778       0.00000000 NULL
P        3.34650729       7.45416698       5.29933381       0.00000000 NULL
9
Lattice="4.685185914144375 0.11789294907115473 0.5416430637305182 0.8530629142604151 6.442276721487805 -0.48792704506168494 2.585468335369494 1.0430743812652536 6.580048641806456" Properties=species:S:1:pos:R:3:initial_magmoms:R:1:castep_labels:S:1 n_minim_iter=8 pbc="T T T"
P        3.57287743       3.07101624       5.26921510       0.00000000 NULL
P        4.20132869       2.09639461       0.91427966       0.00000000 NULL
P        1.32732359       0.67159144       2.15656068       0.00000000 NULL
P        1.65364891       5.48435341       0.47016038       0.00000000 NULL
P        3.19304429       5.33321524       2.40262521       0.00000000 NULL
P        2.13805383       4.15394298       3.83290049       0.00000000 NULL
P        1.65779156       2.31238381       0.80935149       0.00000000 NULL
P        3.10171068       2.30675813       3.04944461       0.00000000 NULL
P        3.32117413       7.23659846       5.18110409       0.00000000 NULL
9
Lattice="4.721643559995794 0.12471534663891531 0.5575501363552673 0.8680587974239927 6.490336767755047 -0.50799220562576 2.6231564956835998 1.0358650069435433 6.6736203412436605" Properties=species:S:1:pos:R:3:initial_magmoms:R:1:castep_labels:S:1 n_minim_iter=9 pbc="T T T"
P        3.61899867       3.08002252       5.33926544       0.00000000 NULL
P        4.23497943       2.11550312       0.92639972       0.00000000 NULL
P        1.34359986       0.67425128       2.19200991       0.00000000 NULL
P        1.67372100       5.51718281       0.46326149       0.00000000 NULL
P        3.23831626       5.36909319       2.42949115       0.00000000 NULL
P        2.16349880       4.17507852       3.88092435       0.00000000 NULL
P        1.67704309       2.33255482       0.82080170       0.00000000 NULL
P        3.13774064       2.31864173       3.09053287       0.00000000 NULL
P        3.37079702       7.28403548       5.24604151       0.00000000 NULL
9
Lattice="4.7173240853617004 0.1277736909574927 0.5612780591645599 0.8717548555941573 6.462016233226132 -0.51279849324802 2.6274730948710516 1.0251617586150124 6.674841293800418" Properties=species:S:1:pos:R:3:initial_magmoms:R:1:castep_labels:S:1 n_minim_iter=10 pbc="T T T"
P        3.62311614       3.05915215       5.33799463       0.00000000 NULL
P        4.23174162       2.10864136       0.92480702       0.00000000 NULL
P        1.34429401       0.67070149       2.19531102       0.00000000 NULL
P        1.67560015       5.48819419       0.45676977       0.00000000 NULL
P        3.24656952       5.34393349       2.42781082       0.00000000 NULL
P        2.16322129       4.15282938       3.87866667       0.00000000 NULL
P        1.67749074       2.32426979       0.82216486       0.00000000 NULL
P        3.14046713       2.30690046       3.08964110       0.00000000 NULL
P        3.37917238       7.25294957       5.24740245       0.00000000 NULL
9
Lattice="4.71159359225913 0.13554391566087498 0.5710014463027531 0.8819133187046471 6.398680174275506 -0.5274970932175519 2.6408174175377384 0.9976457009979062 6.694614658141781" Properties=species:S:1:pos:R:3:initial_magmoms:R:1:castep_labels:S:1 n_minim_iter=11 pbc="T T T"
P        3.63783329       3.00896575       5.34713719       0.00000000 NULL
P        4.22729716       2.09393849       0.92096267       0.00000000 NULL
P        1.34731414       0.66183909       2.20955724       0.00000000 NULL
P        1.68220736       5.42059376       0.44047746       0.00000000 NULL
P        3.27173752       5.28629803       2.42849303       0.00000000 NULL
P        2.16357185       4.10127029       3.88175798       0.00000000 NULL
P        1.68040888       2.30656890       0.82724674       0.00000000 NULL
P        3.15067731       2.27882537       3.09394153       0.00000000 NULL
P        3.40326611       7.18264197       5.26323656       0.00000000 NULL
9
Lattice="4.684060968621226 0.15633063284019816 0.5894969092138276 0.9073017871868191 6.194918476014714 -0.565129378871323 2.6617510470865513 0.9184812227753789 6.787290229201047" Properties=species:S:1:pos:R:3:initial_magmoms:R:1:castep_labels:S:1 n_minim_iter=12 pbc="T T T"
P        3.66829325       2.85655377       5.39885825       0.00000000 NULL
P        4.19705948       2.04642770       0.89726529       0.00000000 NULL
P        1.34800923       0.63379916       2.26645565       0.00000000 NULL
P        1.69629851       5.19894024       0.40058767       0.00000000 NULL
P        3.34010197       5.10116178       2.44768043       0.00000000 NULL
P        2.14266463       3.94590846       3.91177718       0.00000000 NULL
P        1.68098312       2.25158744       0.84895500       0.00000000 NULL
P        3.16839825       2.18765494       3.11596433       0.00000000 NULL
P        3.45202562       6.96548246       5.35324991       0.00000000 NULL
9
Lattice="4.580260881548492 0.13164340466715385 0.5529698529084076 0.8571574256144556 6.057973878006931 -0.48310734412621265 2.564346835114919 0.9593401942805438 6.845811685810686" Properties=species:S:1:pos:R:3:initial_magmoms:R:1:castep_labels:S:1 n_minim_iter=13 pbc="T T T"
P        3.57894292       2.82666901       5.44572060       0.00000000 NULL
P        4.06281498       2.00581406       0.85079335       0.00000000 NULL
P        1.29907419       0.63864243       2.31627367       0.00000000 NULL
P        1.63718630       5.03647044       0.45870935       0.00000000 NULL
P        3.27891118       4.98332223       2.53917741       0.00000000 NULL
P        2.00931955       3.91819289       3.97484942       0.00000000 NULL
P        1.61727644       2.22790900       0.89242681       0.00000000 NULL
P        3.08167188       2.14271608       3.12941215       0.00000000 NULL
P        3.30276581       6.90298049       5.53552858       0.00000000 NULL
