9
Lattice="4.995269999999998 1.1027259915313067e-16 4.824562353432801e-16 0.4554780382887806 6.438128265655834 -2.73134295881608e-15 2.260021459468408 0.5703425896182344 6.114375063840116" Properties=species:S:1:pos:R:3:initial_magmoms:R:1:castep_labels:S:1 n_minim_iter=1 pbc="T T T"
P        2.46258667       4.13547480       2.24189615       0.00000000 NULL
P        4.72458166       2.40824090       2.83027940       0.00000000 NULL
P        6.22424387       2.12953640       6.01765910       0.00000000 NULL
P        3.18902511       6.17743203       5.88330855       0.00000000 NULL
P        4.07965299       4.69079939       3.35706828       0.00000000 NULL
P        5.78352399       3.75357215       4.30744883       0.00000000 NULL
P        2.61678037       5.66529621       0.94595802       0.00000000 NULL
P        4.50071791       3.37772406       0.64001671       0.00000000 NULL
P        5.47649630       5.78467896       4.29549095       0.00000000 NULL
9
Lattice="4.999146541305348 0.0006862744186275383 0.0036048066143781103 0.4567160098422052 6.442472028396853 0.0009953931386270903 2.2662660904374317 0.5716655191309495 6.118356470311735" Properties=species:S:1:pos:R:3:initial_magmoms:R:1:castep_labels:S:1 n_minim_iter=2 pbc="T T T"
P        2.46651614       4.13857798       2.24492127       0.00000000 NULL
P        4.73061778       2.41082116       2.83491103       0.00000000 NULL
P        6.23368739       2.13222470       6.02457471       0.00000000 NULL
P        3.19653619       6.18262483       5.88837677       0.00000000 NULL
P        4.08577737       4.69476461       3.36175632       0.00000000 NULL
P        5.79175233       3.75699593       4.31368524       0.00000000 NULL
P        2.62031329       5.66977391       0.94869464       0.00000000 NULL
P        4.50523967       3.38075421       0.64400419       0.00000000 NULL
P        5.48474051       5.79009454       4.30177260       0.00000000 NULL
9
Lattice="5.10946653422234 0.020324895496323193 0.10722427652315039 0.49208632924770024 6.563479644250856 0.029250103487661144 2.445254332582767 0.6089726604224152 6.230703286231254" Properties=species:S:1:pos:R:3:initial_magmoms:R:1:castep_labels:S:1 n_minim_iter=3 pbc="T T T"
P        2.57881550       4.22506108       2.33077993       0.00000000 NULL
P        4.90297617       2.48338764       2.96693400       0.00000000 NULL
P        6.50367526       2.20775006       6.22120080       0.00000000 NULL
P        3.41165477       6.32783190       6.03171804       0.00000000 NULL
P        4.26080638       4.80564025       3.49509230       0.00000000 NULL
P        6.02693201       3.85274237       4.49129643       0.00000000 NULL
P        2.72107444       5.79509389       1.02670685       0.00000000 NULL
P        4.63428893       3.46571403       0.75830798       0.00000000 NULL
P        5.72049170       5.94204476       4.48066299       0.00000000 NULL
9
Lattice="5.130224960869463 0.024350724031960074 0.1713210764909897 0.4991677898965057 6.539330438956497 0.03051084243352617 2.5335623652927053 0.6042689942735262 6.214862368101051" Properties=species:S:1:pos:R:3:initial_magmoms:R:1:castep_labels:S:1 n_minim_iter=4 pbc="T T T"
P        2.61876182       4.20485216       2.34240172       0.00000000 NULL
P        4.96061213       2.47902956       3.00291068       0.00000000 NULL
P        6.60856086       2.19678361       6.25532159       0.00000000 NULL
P        3.50682824       6.30401553       6.02412723       0.00000000 NULL
P        4.32285998       4.78682095       3.52082002       0.00000000 NULL
P        6.11118755       3.83275918       4.53203855       0.00000000 NULL
P        2.74667392       5.78099087       1.04588763       0.00000000 NULL
P        4.66594909       3.45644984       0.81270418       0.00000000 NULL
P        5.80392033       5.92814247       4.51872506       0.00000000 NULL
9
Lattice="5.157568424295092 0.032635495644586066 0.35210960529886176 0.5123388035503971 6.474732347628615 0.03150394369583826 2.7681704734800996 0.587515224850097 6.155425820228189" Properties=species:S:1:pos:R:3:initial_magmoms:R:1:castep_labels:S:1 n_minim_iter=5 pbc="T T T"
P        2.71369807       4.14649780       2.36800471       0.00000000 NULL
P        5.09144789       2.46538684       3.09722113       0.00000000 NULL
P        6.86439582       2.15986796       6.33639987       0.00000000 NULL
P        3.75345091       6.23622793       5.98682385       0.00000000 NULL
P        4.46976939       4.73259413       3.58374642       0.00000000 NULL
P        6.31067569       3.77355351       4.63485984       0.00000000 NULL
P        2.79572392       5.74382203       1.09338463       0.00000000 NULL
P        4.72636406       3.42937749       0.96377815       0.00000000 NULL
P        6.00139845       5.88687430       4.61447002       0.00000000 NULL
9
Lattice="5.130504073383549 0.040054982777474414 0.6058136910660163 0.519433593695108 6.474050592882709 0.08741232942089881 3.0673149784352667 0.6218787265288982 6.064176880715066" Properties=species:S:1:pos:R:3:initial_magmoms:R:1:castep_labels:S:1 n_minim_iter=6 pbc="T T T"
P        2.81063039       4.13106040       2.43274110       0.00000000 NULL
P        5.21050979       2.50311572       3.24616995       0.00000000 NULL
P        7.14001627       2.17890452       6.45448740       0.00000000 NULL
P        4.05809433       6.27573549       5.97640928       0.00000000 NULL
P        4.62063001       4.74894419       3.70559179       0.00000000 NULL
P        6.51247318       3.77503188       4.79967854       0.00000000 NULL
P        2.81278648       5.78327690       1.19848441       0.00000000 NULL
P        4.75409471       3.44139284       1.20650008       0.00000000 NULL
P        6.20273063       5.94207604       4.79351339       0.00000000 NULL
9
Lattice="5.1835897639029325 -0.013264254568482271 0.8668896902214788 0.45555381885185936 6.433008910691299 0.22378772229652563 3.4048104785510653 0.7014594696859023 5.877264920199133" Properties=species:S:1:pos:R:3:initial_magmoms:R:1:castep_labels:S:1 n_minim_iter=7 pbc="T T T"
P        2.90424748       4.06407188       2.51058045       0.00000000 NULL
P        5.38269072       2.51350258       3.39381003       0.00000000 NULL
P        7.50211231       2.18120709       6.49728378       0.00000000 NULL
P        4.35578652       6.32032196       5.94794282       0.00000000 NULL
P        4.78893932       4.73372104       3.83720413       0.00000000 NULL
P        6.75967113       3.73331975       4.93996648       0.00000000 NULL
P        2.77208571       5.80299877       1.34054053       0.00000000 NULL
P        4.82836945       3.37612750       1.49437779       0.00000000 NULL
P        6.43128685       5.95675636       4.98747406       0.00000000 NULL
9
Lattice="5.430113006402327 -0.09648431677607801 0.8331147023389504 0.3707745152542292 6.536430863148766 0.14552838020364386 3.4655020785703377 0.6022430925609548 6.08498646771305" Properties=species:S:1:pos:R:3:initial_magmoms:R:1:castep_labels:S:1 n_minim_iter=8 pbc="T T T"
P        2.95502937       4.05555675       2.52644672       0.00000000 NULL
P        5.56195134       2.44561356       3.44811628       0.00000000 NULL
P        7.73637566       2.03846212       6.65465592       0.00000000 NULL
P        4.37133609       6.30742645       6.07065825       0.00000000 NULL
P        4.88483247       4.70609182       3.88320559       0.00000000 NULL
P        6.94141075       3.64063347       5.02378762       0.00000000 NULL
P        2.78424820       5.86993573       1.28109339       0.00000000 NULL
P        4.99923066       3.34716512       1.44980716       0.00000000 NULL
P        6.57685182       5.92140701       5.04848713       0.00000000 NULL
9
Lattice="5.359976725081927 -0.1062094011908239 0.795658656265393 0.3518452328160042 6.379195620009394 0.15966135216504662 3.3868123491256803 0.600658345424302 5.8927030404127665" Properties=species:S:1:pos:R:3:initial_magmoms:R:1:castep_labels:S:1 n_minim_iter=9 pbc="T T T"
P        2.89924141       3.95778820       2.45325559       0.00000000 NULL
P        5.46936787       2.38951799       3.33908289       0.00000000 NULL
P        7.60006405       1.99106848       6.43745658       0.00000000 NULL
P        4.27392302       6.16625720       5.89318021       0.00000000 NULL
P        4.79275070       4.59299136       3.76927341       0.00000000 NULL
P        6.81890003       3.55075627       4.86539168       0.00000000 NULL
P        2.72431033       5.72844150       1.24985275       0.00000000 NULL
P        4.92658323       3.25665666       1.40710245       0.00000000 NULL
P        6.45467461       5.78015765       4.89977489       0.00000000 NULL
9
Lattice="5.4045643807233725 -0.11773141119306953 0.8036174905354648 0.3410607346108732 6.380123793890349 0.16354400225845456 3.415411576665522 0.5986189077367949 5.898875795768019" Properties=species:S:1:pos:R:3:initial_magmoms:R:1:castep_labels:S:1 n_minim_iter=10 pbc="T T T"
P        2.91836297       3.95088035       2.45900411       0.00000000 NULL
P        5.51146898       2.38224022       3.35167081       0.00000000 NULL
P        7.66046329       1.97758173       6.44837393       0.00000000 NULL
P        4.29852631       6.16393133       5.90193881       0.00000000 NULL
P        4.82118309       4.58697505       3.78003465       0.00000000 NULL
P        6.86711202       3.53842519       4.87839302       0.00000000 NULL
P        2.73056384       5.72901643       1.25519341       0.00000000 NULL
P        4.96362602       3.24823099       1.41726641       0.00000000 NULL
P        6.49782796       5.77294659       4.91485986       0.00000000 NULL
9
Lattice="5.437975124338251 -0.13028196387819957 0.8073169065196314 0.3279314727226732 6.362171315312688 0.16649252294353029 3.433622904515905 0.5939315243820326 5.8822343467799225" Properties=species:S:1:pos:R:3:initial_magmoms:R:1:castep_labels:S:1 n_minim_iter=11 pbc="T T T"
P        2.92996843       3.93129865       2.45486487       0.00000000 NULL
P        5.54008050       2.36715684       3.35072067       0.00000000 NULL
P        7.70142247       1.95615384       6.43297455       0.00000000 NULL
P        4.31015167       6.14216954       5.88729182       0.00000000 NULL
P        4.83622793       4.56626623       3.77555763       0.00000000 NULL
P        6.89793302       3.51370497       4.87141447       0.00000000 NULL
P        2.72831817       5.71211121       1.25466365       0.00000000 NULL
P        4.98953959       3.22905707       1.42100153       0.00000000 NULL
P        6.52354761       5.74702832       4.91006069       0.00000000 NULL
9
Lattice="5.64522358893038 -0.20692325913771611 0.8359393479068998 0.24805003183239485 6.257064127939454 0.1734336606453007 3.5536729767831985 0.5546778286236377 5.789802100920298" Properties=species:S:1:pos:R:3:initial_magmoms:R:1:castep_labels:S:1 n_minim_iter=12 pbc="T T T"
P        3.00859393       3.80901907       2.42946001       0.00000000 NULL
P        5.72192763       2.27154647       3.35130905       0.00000000 NULL
P        7.96301987       1.81543094       6.34896763       0.00000000 NULL
P        4.39078729       6.00219440       5.79688034       0.00000000 NULL
P        4.93071304       4.43856352       3.74848322       0.00000000 NULL
P        7.09593630       3.35709407       4.83458674       0.00000000 NULL
P        2.71454877       5.61144956       1.24558434       0.00000000 NULL
P        5.15298120       3.11492555       1.44332948       0.00000000 NULL
P        6.68910324       5.58500144       4.88147705       0.00000000 NULL
