12
Lattice="6.148280000000001 4.715579843484493e-16 1.1454254686586368e-16 -1.1222909197202589 6.044982220810369 1.145425468658636e-16 -0.10306175013453812 -0.12395698384092148 7.3843506061072315" Properties=species:S:1:pos:R:3:initial_magmoms:R:1:castep_labels:S:1 n_minim_iter=1 pbc="T T T"
P        2.45135766       3.21908099       3.15847284       0.00000000 NULL
P        0.15300712      -0.08669481       6.85064814       0.00000000 NULL
P        4.66673539       4.01707950       5.20402288       0.00000000 NULL
P        0.63627089       2.36108371       1.51184758       0.00000000 NULL
P        2.05323126       0.13113915       6.11630992       0.00000000 NULL
P        2.31866984       5.12714214       2.42413462       0.00000000 NULL
P        1.81013384       2.13028366       6.87146389       0.00000000 NULL
P        4.32860091       5.25304762       3.17928859       0.00000000 NULL
P        4.42877425       1.57715475       5.47501008       0.00000000 NULL
P        4.42905633       1.68174311       1.78283478       0.00000000 NULL
P        5.78607827       0.17604187       4.92967284       0.00000000 NULL
P        2.80372495       2.76048747       1.23749754       0.00000000 NULL
12
Lattice="6.154765558767554 -0.0010204621361657765 0.0014402156667883128 -1.124478093886737 6.051172542665025 0.0014402156667883122 -0.10142013039644705 -0.12198253424073657 7.397427631243488" Properties=species:S:1:pos:R:3:initial_magmoms:R:1:castep_labels:S:1 n_minim_iter=2 pbc="T T T"
P        2.45406032       3.22258914       3.16594011       0.00000000 NULL
P        0.15463461      -0.08499489       6.86321371       0.00000000 NULL
P        4.67222957       4.02175195       5.21548548       0.00000000 NULL
P        0.63689194       2.36376632       1.51533145       0.00000000 NULL
P        2.05713581       0.13262249       6.12765664       0.00000000 NULL
P        2.32074390       5.13284956       2.43038304       0.00000000 NULL
P        1.81313555       2.13405965       6.88450484       0.00000000 NULL
P        4.33309392       5.25828586       3.18723124       0.00000000 NULL
P        4.43427760       1.57966482       5.48627366       0.00000000 NULL
P        4.43403522       1.68301956       1.78755984       0.00000000 NULL
P        5.79337201       0.17672001       4.93971586       0.00000000 NULL
P        2.80657587       2.76318984       1.24100205       0.00000000 NULL
12
Lattice="6.320776527674475 -0.02748616814246385 0.03923108633236219 -1.180802354533205 6.209563366434759 0.03923108633236215 -0.058280867578335935 -0.07009701029928128 7.737291508325698" Properties=species:S:1:pos:R:3:initial_magmoms:R:1:castep_labels:S:1 n_minim_iter=3 pbc="T T T"
P        2.52353118       3.31268835       3.36063979       0.00000000 NULL
P        0.19726530      -0.04026454       7.19005446       0.00000000 NULL
P        4.81342640       4.14201640       5.51387558       0.00000000 NULL
P        0.65294914       2.43263833       1.60599874       0.00000000 NULL
P        2.15830575       0.17158761       6.42275021       0.00000000 NULL
P        2.37386080       5.27945213       2.59333554       0.00000000 NULL
P        1.89067059       2.23176532       7.22353345       0.00000000 NULL
P        4.44827871       5.39237297       3.39411878       0.00000000 NULL
P        4.57570289       1.64473958       5.77940397       0.00000000 NULL
P        4.56179923       1.71557630       1.91075822       0.00000000 NULL
P        5.98081731       0.19462460       5.20101553       0.00000000 NULL
P        2.87956186       2.83238309       1.33236977       0.00000000 NULL
12
Lattice="6.316474780822314 -0.042230169841003584 0.047721415328776245 -1.1945134113979143 6.202642562166517 0.04772141532877621 -0.04771424835958945 -0.05738806400211971 7.814514843820345" Properties=species:S:1:pos:R:3:initial_magmoms:R:1:castep_labels:S:1 n_minim_iter=4 pbc="T T T"
P        2.51670553       3.30482479       3.40718494       0.00000000 NULL
P        0.20506951      -0.03122403       7.26672095       0.00000000 NULL
P        4.80773895       4.13538084       5.57937226       0.00000000 NULL
P        0.65118633       2.43031313       1.62439342       0.00000000 NULL
P        2.17012457       0.17818939       6.49105580       0.00000000 NULL
P        2.36390457       5.27509057       2.63151979       0.00000000 NULL
P        1.88987022       2.23440228       7.29953674       0.00000000 NULL
P        4.43672775       5.37488052       3.44000073       0.00000000 NULL
P        4.57306163       1.64189472       5.84569594       0.00000000 NULL
P        4.55890564       1.70219406       1.93843852       0.00000000 NULL
P        5.98423679       0.18904406       5.25991108       0.00000000 NULL
P        2.87287223       2.82446038       1.35265366       0.00000000 NULL
12
Lattice="6.288095466101199 -0.07032714498730694 0.05427687831700649 -1.2169580411152605 6.169611302528664 0.05427687831700645 -0.0387986694940503 -0.046664897900967506 7.883062319869568" Properties=species:S:1:pos:R:3:initial_magmoms:R:1:castep_labels:S:1 n_minim_iter=5 pbc="T T T"
P        2.49149125       3.27432192       3.44996987       0.00000000 NULL
P        0.20955143      -0.02565689       7.33722415       0.00000000 NULL
P        4.77335418       4.09947188       5.63367554       0.00000000 NULL
P        0.64311136       2.41515387       1.63786751       0.00000000 NULL
P        2.17426227       0.17858368       6.55241556       0.00000000 NULL
P        2.33366719       5.24330503       2.66516128       0.00000000 NULL
P        1.87269897       2.21958911       7.36517390       0.00000000 NULL
P        4.39542809       5.31936810       3.47791961       0.00000000 NULL
P        4.54591669       1.62022625       5.90332458       0.00000000 NULL
P        4.53513106       1.66865543       1.96179342       0.00000000 NULL
P        5.96406038       0.16816880       5.31115650       0.00000000 NULL
P        2.84860552       2.79791800       1.36962534       0.00000000 NULL
12
Lattice="6.246192535921509 -0.15185484187965384 0.05452677975507389 -1.2894671331161967 6.113530534921452 0.05452677975507385 -0.036152421020978716 -0.04348213631592364 7.9638242592950474" Properties=species:S:1:pos:R:3:initial_magmoms:R:1:castep_labels:S:1 n_minim_iter=6 pbc="T T T"
P        2.42735250       3.19745593       3.49861716       0.00000000 NULL
P        0.20421373      -0.03235335       7.42600251       0.00000000 NULL
P        4.68843853       3.99968107       5.68025417       0.00000000 NULL
P        0.61638032       2.38066219       1.64381526       0.00000000 NULL
P        2.17594232       0.15551546       6.62380366       0.00000000 NULL
P        2.25215073       5.17035043       2.69641831       0.00000000 NULL
P        1.81756399       2.16707524       7.43425705       0.00000000 NULL
P        4.29533157       5.18517809       3.50687170       0.00000000 NULL
P        4.48290127       1.54612939       5.96280506       0.00000000 NULL
P        4.48776174       1.57885844       1.98089293       0.00000000 NULL
P        5.92805212       0.09054267       5.36473535       0.00000000 NULL
P        2.79283641       2.73403020       1.38282322       0.00000000 NULL
12
Lattice="6.254212993640398 -0.3011560897483408 0.022655787403145253 -1.437723991258787 6.094163181698683 0.022655787403145226 -0.07155520874878289 -0.08606265508811885 8.002470378439737" Properties=species:S:1:pos:R:3:initial_magmoms:R:1:castep_labels:S:1 n_minim_iter=7 pbc="T T T"
P        2.33105713       3.08627556       3.49813114       0.00000000 NULL
P        0.16489562      -0.08428139       7.47671054       0.00000000 NULL
P        4.57001511       3.83248351       5.64266204       0.00000000 NULL
P        0.56142815       2.33933317       1.61877106       0.00000000 NULL
P        2.16608066       0.07045328       6.64787622       0.00000000 NULL
P        2.11790101       5.08208338       2.66929682       0.00000000 NULL
P        1.71145642       2.06063991       7.43825978       0.00000000 NULL
P        4.15763626       4.99838078       3.45968038       0.00000000 NULL
P        4.40759278       1.39317459       5.95553404       0.00000000 NULL
P        4.44696341       1.43321857       1.95429885       0.00000000 NULL
P        5.91231801      -0.07648183       5.36255741       0.00000000 NULL
P        2.72733021       2.64439555       1.36132222       0.00000000 NULL
12
Lattice="6.232979271177279 -0.3588919568133137 0.00425081469328128 -1.4906138850174666 6.062747254948377 0.004250814693281252 -0.09214041678188081 -0.1108214069644428 8.018366795693137" Properties=species:S:1:pos:R:3:initial_magmoms:R:1:castep_labels:S:1 n_minim_iter=8 pbc="T T T"
P        2.28119491       3.02990424       3.49029652       0.00000000 NULL
P        0.14534232      -0.11139922       7.49522910       0.00000000 NULL
P        4.50040831       3.74400185       5.62083420       0.00000000 NULL
P        0.53449334       2.31169990       1.60739998       0.00000000 NULL
P        2.14521657       0.02884844       6.65532299       0.00000000 NULL
P        2.05403445       5.02177887       2.65039040       0.00000000 NULL
P        1.65787297       2.00335697       7.43585529       0.00000000 NULL
P        4.08432751       4.90304479       3.43092271       0.00000000 NULL
P        4.35826006       1.31916960       5.94652142       0.00000000 NULL
P        4.40932754       1.37042542       1.93733803       0.00000000 NULL
P        5.87575336      -0.14529317       5.35734450       0.00000000 NULL
P        2.69247008       2.59510399       1.34816110       0.00000000 NULL
12
Lattice="6.240813938287633 -0.47077599064418374 -0.024872432768156805 -1.6020482652111365 6.0500272728001985 -0.02487243276815683 -0.12499430716653587 -0.150336252716682 8.076466153380753" Properties=species:S:1:pos:R:3:initial_magmoms:R:1:castep_labels:S:1 n_minim_iter=9 pbc="T T T"
P        2.20825743       2.95026471       3.49269982       0.00000000 NULL
P        0.11572755      -0.15510387       7.55580533       0.00000000 NULL
P        4.40832458       3.60866411       5.61039039       0.00000000 NULL
P        0.48646493       2.27851852       1.59702974       0.00000000 NULL
P        2.12649735      -0.04476700       6.69337226       0.00000000 NULL
P        1.94969987       4.94739200       2.63026675       0.00000000 NULL
P        1.57857739       1.92001128       7.46236153       0.00000000 NULL
P        3.98148362       4.76732316       3.39925602       0.00000000 NULL
P        4.30508435       1.19646729       5.95678402       0.00000000 NULL
P        4.37445479       1.26592075       1.91855094       0.00000000 NULL
P        5.85511159      -0.27173233       5.37077494       0.00000000 NULL
P        2.64798460       2.52190454       1.33254187       0.00000000 NULL
12
Lattice="6.208771397598518 -0.5937956972138955 -0.047532044399460516 -1.717152145737569 5.996067386717403 -0.047532044399460543 -0.1491921323765488 -0.17944006110948965 8.070418135170776" Properties=species:S:1:pos:R:3:initial_magmoms:R:1:castep_labels:S:1 n_minim_iter=10 pbc="T T T"
P        2.11703865       2.84858904       3.47299428       0.00000000 NULL
P        0.09388527      -0.18941180       7.55573539       0.00000000 NULL
P        4.28447731       3.44035474       5.56651416       0.00000000 NULL
P        0.42926223       2.22907096       1.57883714       0.00000000 NULL
P        2.09923778      -0.11595383       6.68053540       0.00000000 NULL
P        1.82321065       4.83365827       2.59779429       0.00000000 NULL
P        1.49289984       1.82775182       7.43407472       0.00000000 NULL
P        3.84493927       4.59230640       3.35133360       0.00000000 NULL
P        4.22757241       1.06109586       5.92633008       0.00000000 NULL
P        4.30913615       1.14502274       1.89112102       0.00000000 NULL
P        5.79928406      -0.40277055       5.34793849       0.00000000 NULL
P        2.58296816       2.42311759       1.31272942       0.00000000 NULL
12
Lattice="6.222559377684332 -0.6439656737302965 -0.04766118342011134 -1.7689960339325943 6.000465817724561 -0.047661183420111365 -0.14856686843208533 -0.17868802815294668 8.108026598957585" Properties=species:S:1:pos:R:3:initial_magmoms:R:1:castep_labels:S:1 n_minim_iter=11 pbc="T T T"
P        2.09542417       2.82602544       3.49248111       0.00000000 NULL
P        0.09498680      -0.19152004       7.59415559       0.00000000 NULL
P        4.26239600       3.39711379       5.59181367       0.00000000 NULL
P        0.40949376       2.22197731       1.58546156       0.00000000 NULL
P        2.10745748      -0.13429411       6.71144849       0.00000000 NULL
P        1.78433752       4.81513030       2.60977401       0.00000000 NULL
P        1.47649218       1.81245418       7.46616673       0.00000000 NULL
P        3.81355308       4.55012022       3.36449224       0.00000000 NULL
P        4.22345646       1.02271683       5.95320561       0.00000000 NULL
P        4.30465655       1.10631012       1.89919231       0.00000000 NULL
P        5.80829291      -0.44586548       5.37424714       0.00000000 NULL
P        2.57145612       2.39644843       1.32023384       0.00000000 NULL
12
Lattice="6.21900656734237 -0.6864482501592243 -0.04752246310755799 -1.8101163362644357 5.989218040277277 -0.04752246310755802 -0.14748420298488024 -0.17738585791841122 8.11350513801239" Properties=species:S:1:pos:R:3:initial_magmoms:R:1:castep_labels:S:1 n_minim_iter=12 pbc="T T T"
P        2.07124048       2.79930271       3.49753457       0.00000000 NULL
P        0.09600536      -0.19265906       7.60180961       0.00000000 NULL
P        4.23249231       3.35059140       5.59524164       0.00000000 NULL
P        0.39100676       2.21029804       1.58601153       0.00000000 NULL
P        2.10926009      -0.14973255       6.71592848       0.00000000 NULL
P        1.74595153       4.78656826       2.61165344       0.00000000 NULL
P        1.45874318       1.79439120       7.46912246       0.00000000 NULL
P        3.77615555       4.50185600       3.36484743       0.00000000 NULL
P        4.20947315       0.98647645       5.95666525       0.00000000 NULL
P        4.28981993       1.06967803       1.89991268       0.00000000 NULL
P        5.80143940      -0.48251330       5.37923774       0.00000000 NULL
P        2.55491746       2.36675199       1.32248518       0.00000000 NULL
12
Lattice="6.21472479753182 -0.807351139247732 -0.04399312985159912 -1.9282063425110485 5.962938912298338 -0.04399312985159915 -0.1407359940016838 -0.1692694846684588 8.129351167012997" Properties=species:S:1:pos:R:3:initial_magmoms:R:1:castep_labels:S:1 n_minim_iter=13 pbc="T T T"
P        2.00651996       2.72777516       3.51572596       0.00000000 NULL
P        0.10205346      -0.19169946       7.62439467       0.00000000 NULL
P        4.15497222       3.22432563       5.61044329       0.00000000 NULL
P        0.33882449       2.18056498       1.58976083       0.00000000 NULL
P        2.12031425      -0.19038870       6.72972912       0.00000000 NULL
P        1.63940066       4.71236624       2.62106041       0.00000000 NULL
P        1.41372693       1.74939375       7.47991245       0.00000000 NULL
P        3.67557126       4.37173315       3.37124374       0.00000000 NULL
P        4.17687919       0.88831270       5.96991762       0.00000000 NULL
P        4.25278507       0.96834307       1.90524203       0.00000000 NULL
P        5.78904497      -0.58293732       5.39670209       0.00000000 NULL
P        2.51197314       2.28486459       1.33202650       0.00000000 NULL
12
Lattice="6.217416496953042 -1.007778887205466 -0.022367078873045572 -2.125758022457411 5.928999832352743 -0.02236707887304567 -0.11076641706099905 -0.1332237319065837 8.112276023646189" Properties=species:S:1:pos:R:3:initial_magmoms:R:1:castep_labels:S:1 n_minim_iter=14 pbc="T T T"
P        1.91200616       2.62156252       3.54568710       0.00000000 NULL
P        0.12729239      -0.16880681       7.62419219       0.00000000 NULL
P        4.05018690       3.03309838       5.63180128       0.00000000 NULL
P        0.25238251       2.14179458       1.59803035       0.00000000 NULL
P        2.16244281      -0.24133876       6.72096982       0.00000000 NULL
P        1.46920180       4.60928041       2.64246473       0.00000000 NULL
P        1.36105669       1.69961617       7.46767979       0.00000000 NULL
P        3.52382950       4.17565528       3.38917469       0.00000000 NULL
P        4.14507723       0.74527500       5.97586900       0.00000000 NULL
P        4.20309251       0.80969848       1.91973099       0.00000000 NULL
P        5.78552390      -0.73014820       5.41296248       0.00000000 NULL
P        2.45301518       2.15326399       1.35682447       0.00000000 NULL
12
Lattice="6.227773206951396 -1.1075451334671687 0.030045367341268715 -2.2257385741691595 5.920971469222249 0.030045367341268673 -0.045978993376993814 -0.05530099509870301 7.974884717008609" Properties=species:S:1:pos:R:3:initial_magmoms:R:1:castep_labels:S:1 n_minim_iter=15 pbc="T T T"
P        1.88794865       2.59215809       3.55631221       0.00000000 NULL
P        0.17997901      -0.10496886       7.51370920       0.00000000 NULL
P        4.04691993       2.97741727       5.61990259       0.00000000 NULL
P        0.21065145       2.14335456       1.60241486       0.00000000 NULL
P        2.24219343      -0.22148978       6.62315495       0.00000000 NULL
P        1.39695419       4.59845565       2.66575796       0.00000000 NULL
P        1.38544857       1.73516100       7.36513036       0.00000000 NULL
P        3.47711907       4.11326694       3.40773337       0.00000000 NULL
P        4.17516977       0.71906643       5.92492862       0.00000000 NULL
P        4.19460618       0.74967108       1.93748626       0.00000000 NULL
P        5.81465992      -0.75158930       5.38000793       0.00000000 NULL
P        2.44939082       2.09316637       1.39256557       0.00000000 NULL
12
Lattice="6.225322491350963 -1.0917008332154332 0.10152703278313695 -2.2097131281601774 5.921454105352838 0.10152703278313693 0.03959522297291244 0.04762294845395022 7.8381761413572555" Properties=species:S:1:pos:R:3:initial_magmoms:R:1:castep_labels:S:1 n_minim_iter=16 pbc="T T T"
P        1.92496775       2.63231087       3.59093318       0.00000000 NULL
P        0.24869955      -0.01794384       7.40849422       0.00000000 NULL
P        4.12798855       3.04871058       5.63871249       0.00000000 NULL
P        0.21637443       2.17644938       1.61809738       0.00000000 NULL
P        2.34054177      -0.13888477       6.53427235       0.00000000 NULL
P        1.42421936       4.66693162       2.71671131       0.00000000 NULL
P        1.47070440       1.83940561       7.27605847       0.00000000 NULL
P        3.52805015       4.17282041       3.45849744       0.00000000 NULL
P        4.24604717       0.80204705       5.89152403       0.00000000 NULL
P        4.21122967       0.79072359       1.97243596       0.00000000 NULL
P        5.85118150      -0.64400853       5.36641353       0.00000000 NULL
P        2.49647238       2.10493072       1.44732545       0.00000000 NULL
12
Lattice="6.1973189776868525 -1.1025186831055809 0.11788702064674526 -2.2152375384257876 5.891946419150782 0.11788702064674526 0.059931792788976326 0.0720826520081674 7.699766840783914" Properties=species:S:1:pos:R:3:initial_magmoms:R:1:castep_labels:S:1 n_minim_iter=17 pbc="T T T"
P        1.91547165       2.62023563       3.55067632       0.00000000 NULL
P        0.26549283       0.00290805       7.28267272       0.00000000 NULL
P        4.11571744       3.03322705       5.56792058       0.00000000 NULL
P        0.20998666       2.16949104       1.60015014       0.00000000 NULL
P        2.35178322      -0.12583770       6.42585289       0.00000000 NULL
P        1.40806299       4.64797316       2.69385649       0.00000000 NULL
P        1.47757925       1.84680610       7.15876237       0.00000000 NULL
P        3.50713914       4.14853800       3.42676597       0.00000000 NULL
P        4.23840502       0.80303491       5.80384776       0.00000000 NULL
P        4.19218808       0.78050522       1.95396433       0.00000000 NULL
P        5.83514827      -0.63589992       5.29094557       0.00000000 NULL
P        2.48596358       2.08776206       1.44106215       0.00000000 NULL
12
Lattice="6.229175530463417 -1.1100600333015473 0.13295594392722923 -2.228467197415009 5.92189116895126 0.13295594392722923 0.07764826368841474 0.09339104522032471 7.689575407889427" Properties=species:S:1:pos:R:3:initial_magmoms:R:1:castep_labels:S:1 n_minim_iter=18 pbc="T T T"
P        1.93129441       2.64077784       3.56436702       0.00000000 NULL
P        0.28234645       0.02166719       7.27619878       0.00000000 NULL
P        4.14892621       3.06007065       5.58477457       0.00000000 NULL
P        0.21214573       2.18518593       1.60703092       0.00000000 NULL
P        2.38093789      -0.11126627       6.42330621       0.00000000 NULL
P        1.41752300       4.67984533       2.71147445       0.00000000 NULL
P        1.50065284       1.87508106       7.15929464       0.00000000 NULL
P        3.53118246       4.17693267       3.44746288       0.00000000 NULL
P        4.27281152       0.82087100       5.81083323       0.00000000 NULL
P        4.21712889       0.78819216       1.96604552       0.00000000 NULL
P        5.87558843      -0.62506067       5.29937690       0.00000000 NULL
P        2.50292374       2.10010410       1.45458920       0.00000000 NULL
12
Lattice="6.233346758071785 -1.112459396403834 0.1459736447583029 -2.2315876535691777 5.92555434195391 0.1459736447583029 0.09326153940419743 0.11216983136628733 7.656596611393157" Properties=species:S:1:pos:R:3:initial_magmoms:R:1:castep_labels:S:1 n_minim_iter=19 pbc="T T T"
P        1.93791142       2.64915220       3.56527981       0.00000000 NULL
P        0.29665352       0.03845915       7.24760447       0.00000000 NULL
P        4.16245016       3.07226580       5.58235364       0.00000000 NULL
P        0.21333534       2.19068743       1.60808169       0.00000000 NULL
P        2.39756612      -0.09747835       6.40120382       0.00000000 NULL
P        1.42076274       4.68995352       2.71887916       0.00000000 NULL
P        1.51548537       1.89288109       7.13765430       0.00000000 NULL
P        3.53869470       4.18600768       3.45532964       0.00000000 NULL
P        4.28699426       0.83360375       5.79895310       0.00000000 NULL
P        4.22289805       0.79204016       1.97065480       0.00000000 NULL
P        5.88881389      -0.61283879       5.29051444       0.00000000 NULL
P        2.50836535       2.10291765       1.46221614       0.00000000 NULL
12
Lattice="6.249616167429563 -1.1186736957513925 0.19395980953971984 -2.2406673212912445 5.940416065652352 0.19395980953971978 0.150747570780478 0.181310856558332 7.536035195371527" Properties=species:S:1:pos:R:3:initial_magmoms:R:1:castep_labels:S:1 n_minim_iter=20 pbc="T T T"
P        1.96428413       2.68237667       3.56859994       0.00000000 NULL
P        0.34965392       0.10070027       7.14265773       0.00000000 NULL
P        4.21444726       3.12071702       5.57387432       0.00000000 NULL
P        0.21914322       2.21176086       1.61189691       0.00000000 NULL
P        2.45858901      -0.04546135       6.32070059       0.00000000 NULL
P        1.43561869       4.72919941       2.74664280       0.00000000 NULL
P        1.57116052       1.95984779       7.05922078       0.00000000 NULL
P        3.56922533       4.22272455       3.48516299       0.00000000 NULL
P        4.34049044       0.88293500       5.75618718       0.00000000 NULL
P        4.24556695       0.80853381       1.98816959       0.00000000 NULL
P        5.93880343      -0.56559841       5.25843500       0.00000000 NULL
P        2.52961860       2.11558192       1.49041740       0.00000000 NULL
12
Lattice="6.272610905991396 -1.1169253094040983 0.24734916425472428 -2.243145709052502 5.963343613503165 0.2473491642547242 0.21444979500434988 0.2579283753608098 7.398525660624082" Properties=species:S:1:pos:R:3:initial_magmoms:R:1:castep_labels:S:1 n_minim_iter=21 pbc="T T T"
P        2.00073544       2.72784103       3.56997605       0.00000000 NULL
P        0.40929364       0.17080890       7.02188972       0.00000000 NULL
P        4.28098482       3.18718906       5.56112281       0.00000000 NULL
P        0.23024359       2.23866742       1.61451082       0.00000000 NULL
P        2.52657302       0.01632731       6.22861505       0.00000000 NULL
P        1.46236668       4.78134916       2.77670138       0.00000000 NULL
P        1.63679396       2.03964221       6.96999027       0.00000000 NULL
P        3.61410563       4.27584995       3.51807661       0.00000000 NULL
P        4.40540856       0.94640587       5.70692042       0.00000000 NULL
P        4.27700690       0.83504870       2.00765759       0.00000000 NULL
P        5.99998694      -0.50536995       5.22004227       0.00000000 NULL
P        2.55855233       2.13783309       1.52077944       0.00000000 NULL
12
Lattice="6.383188533703171 -1.087273301639009 0.46987921117967346 -2.2341764376064783 6.077476016809991 0.4698792111796737 0.4792666201330376 0.576435434191361 6.887646952361114" Properties=species:S:1:pos:R:3:initial_magmoms:R:1:castep_labels:S:1 n_minim_iter=22 pbc="T T T"
P        2.17221261       2.94202279       3.60539196       0.00000000 NULL
P        0.66121089       0.46586256       6.57933622       0.00000000 NULL
P        4.58430415       3.49466519       5.54665722       0.00000000 NULL
P        0.28500480       2.36187081       1.63295453       0.00000000 NULL
P        2.81400919       0.28236842       5.89791475       0.00000000 NULL
P        1.59883520       5.02515721       2.92397048       0.00000000 NULL
P        1.91724161       2.38698367       6.65773723       0.00000000 NULL
P        3.83178424       4.52762725       3.68379297       0.00000000 NULL
P        4.69009010       1.23486326       5.54872974       0.00000000 NULL
P        4.42704864       0.96610782       2.10490627       0.00000000 NULL
P        6.26590424      -0.22882998       5.09949341       0.00000000 NULL
P        2.70030205       2.24826784       1.65566994       0.00000000 NULL
12
Lattice="6.477567762874229 -1.1635740251216102 0.48338752982820693 -2.3264229632683167 6.156341838343855 0.483387529828207 0.4954469632554854 0.5958962577107715 7.322142035544225" Properties=species:S:1:pos:R:3:initial_magmoms:R:1:castep_labels:S:1 n_minim_iter=23 pbc="T T T"
P        2.17469795       2.95885483       3.83319425       0.00000000 NULL
P        0.68433028       0.47982648       7.01087774       0.00000000 NULL
P        4.62603933       3.48497327       5.86887362       0.00000000 NULL
P        0.25870097       2.39012270       1.72441508       0.00000000 NULL
P        2.86046794       0.26890404       6.26538353       0.00000000 NULL
P        1.57009276       5.05992979       3.08770005       0.00000000 NULL
P        1.92627490       2.40389874       7.06150224       0.00000000 NULL
P        3.83974239       4.53114854       3.88381875       0.00000000 NULL
P        4.75032171       1.21883276       5.87836389       0.00000000 NULL
P        4.48551566       0.93508762       2.21729287       0.00000000 NULL
P        6.34697844      -0.26960695       5.39575087       0.00000000 NULL
P        2.73063382       2.23322290       1.73467985       0.00000000 NULL
12
Lattice="6.312459225567776 -1.129559055080849 0.4573411793481776 -2.262841001918943 6.000216307218041 0.4573411793481776 0.46624604816560156 0.560775008991322 7.078850216587079" Properties=species:S:1:pos:R:3:initial_magmoms:R:1:castep_labels:S:1 n_minim_iter=24 pbc="T T T"
P        2.11486750       2.87699634       3.69510383       0.00000000 NULL
P        0.65093122       0.44955368       6.77718776       0.00000000 NULL
P        4.49941360       3.38584195       5.65589022       0.00000000 NULL
P        0.24971283       2.32614515       1.65912393       0.00000000 NULL
P        2.77325968       0.24764084       6.05378930       0.00000000 NULL
P        1.52894274       4.92681074       2.97170537       0.00000000 NULL
P        1.86189878       2.32543313       6.82055020       0.00000000 NULL
P        3.73818330       4.41003644       3.73846627       0.00000000 NULL
P        4.61838164       1.17769489       5.67172927       0.00000000 NULL
P        4.36940815       0.91048596       2.13230416       0.00000000 NULL
P        6.17408951      -0.27016228       5.20806224       0.00000000 NULL
P        2.66190171       2.17576819       1.66863713       0.00000000 NULL
12
Lattice="6.366945298015736 -1.1336302524153867 0.4556015198128016 -2.2767895436028383 6.053043808800396 0.4556015198128016 0.46332538863371636 0.5572622009327928 7.085495797047578" Properties=species:S:1:pos:R:3:initial_magmoms:R:1:castep_labels:S:1 n_minim_iter=25 pbc="T T T"
P        2.13342120       2.90052834       3.69765578       0.00000000 NULL
P        0.64895202       0.44595657       6.78480216       0.00000000 NULL
P        4.53801884       3.41431776       5.65703423       0.00000000 NULL
P        0.25185488       2.34667793       1.65868482       0.00000000 NULL
P        2.79074124       0.24428894       6.05869976       0.00000000 NULL
P        1.54418522       4.96952130       2.97155338       0.00000000 NULL
P        1.87270174       2.34039254       6.82515039       0.00000000 NULL
P        3.77264852       4.44952312       3.73800401       0.00000000 NULL
P        4.65500311       1.18755947       5.67411816       0.00000000 NULL
P        4.40809985       0.92159987       2.13137027       0.00000000 NULL
P        6.22312074      -0.27128805       5.21091159       0.00000000 NULL
P        2.68752246       2.19707721       1.66816369       0.00000000 NULL
