8
Lattice="4.57932 -4.2042832382463774e-32 0.0 -2.28966 5.032899010471758 0.0 0.0 0.0 7.90759" Properties=species:S:1:pos:R:3:initial_magmoms:R:1:castep_labels:S:1 n_minim_iter=1 pbc="T T T"
P        3.41550483       0.99281734       4.11939496       0.00000000 NULL
P       -1.12584482       4.04008168       4.11939496       0.00000000 NULL
P        1.12584483       4.04008168       3.78819504       0.00000000 NULL
P        1.16381518       0.99281734       3.78819504       0.00000000 NULL
P        2.04756097       2.05367142       6.37934385       0.00000000 NULL
P        0.24209904       2.97922760       6.37934385       0.00000000 NULL
P       -0.24209903       2.97922760       1.52824615       0.00000000 NULL
P        2.53175904       2.05367142       1.52824615       0.00000000 NULL
8
Lattice="4.579234694584263 4.595582542306552e-19 0.0 -2.2896173472921313 5.03591910869355 0.0 0.0 0.0 7.9011958631021555" Properties=species:S:1:pos:R:3:initial_magmoms:R:1:castep_labels:S:1 n_minim_iter=2 pbc="T T T"
P        3.41539639       0.99371479       4.11609212       0.00000000 NULL
P       -1.12577904       4.04220433       4.11609212       0.00000000 NULL
P        1.12577905       4.04220433       3.78510374       0.00000000 NULL
P        1.16383831       0.99371479       3.78510374       0.00000000 NULL
P        2.04758077       2.05483405       6.37425043       0.00000000 NULL
P        0.24203658       2.98108507       6.37425043       0.00000000 NULL
P       -0.24203658       2.98108507       1.52694543       0.00000000 NULL
P        2.53165393       2.05483405       1.52694543       0.00000000 NULL
8
Lattice="4.577084632436952 9.248758618642511e-18 0.0 -2.288542316218476 5.121424867471728 0.0 0.0 0.0 7.717238608652584" Properties=species:S:1:pos:R:3:initial_magmoms:R:1:castep_labels:S:1 n_minim_iter=3 pbc="T T T"
P        3.41250025       1.01935906       4.02103720       0.00000000 NULL
P       -1.12395793       4.10206582       4.02103720       0.00000000 NULL
P        1.12395793       4.10206582       3.69620141       0.00000000 NULL
P        1.16458439       1.01935906       3.69620141       0.00000000 NULL
P        2.04829277       2.08767212       6.22767787       0.00000000 NULL
P        0.24024955       3.03375276       6.22767787       0.00000000 NULL
P       -0.24024955       3.03375276       1.48956074       0.00000000 NULL
P        2.52879187       2.08767212       1.48956074       0.00000000 NULL
8
Lattice="4.583880142565711 1.038843755542294e-17 0.0 -2.2919400712828555 5.137391923999537 0.0 0.0 0.0 7.500817678470731" Properties=species:S:1:pos:R:3:initial_magmoms:R:1:castep_labels:S:1 n_minim_iter=4 pbc="T T T"
P        3.41637425       1.02861663       3.90858102       0.00000000 NULL
P       -1.12443417       4.10877531       3.90858102       0.00000000 NULL
P        1.12443417       4.10877531       3.59223666       0.00000000 NULL
P        1.16750590       1.02861663       3.59223666       0.00000000 NULL
P        2.05297493       2.09213314       6.05478738       0.00000000 NULL
P        0.23896515       3.04525879       6.05478738       0.00000000 NULL
P       -0.23896515       3.04525879       1.44603030       0.00000000 NULL
P        2.53090522       2.09213314       1.44603030       0.00000000 NULL
8
Lattice="4.645015168321239 1.0396642000207002e-17 0.0 -2.3225075841606193 5.15545864834641 0.0 0.0 0.0 6.7866257795294285" Properties=species:S:1:pos:R:3:initial_magmoms:R:1:castep_labels:S:1 n_minim_iter=5 pbc="T T T"
P        3.45854508       1.04857995       3.53653117       0.00000000 NULL
P       -1.13603749       4.10687871       3.53653117       0.00000000 NULL
P        1.13603750       4.10687871       3.25009461       0.00000000 NULL
P        1.18647009       1.04857995       3.25009461       0.00000000 NULL
P        2.08644029       2.09273830       5.48334222       0.00000000 NULL
P        0.23606730       3.06272036       5.48334222       0.00000000 NULL
P       -0.23606730       3.06272036       1.30328356       0.00000000 NULL
P        2.55857489       2.09273830       1.30328356       0.00000000 NULL
8
Lattice="4.86334379185524 -1.1370374133988656e-17 0.0 -2.43167189592762 5.3259625507785895 0.0 0.0 0.0 5.64404890165506" Properties=species:S:1:pos:R:3:initial_magmoms:R:1:castep_labels:S:1 n_minim_iter=6 pbc="T T T"
P        3.61820237       1.10636957       2.93994571       0.00000000 NULL
P       -1.18653047       4.21959299       2.93994571       0.00000000 NULL
P        1.18653048       4.21959299       2.70410319       0.00000000 NULL
P        1.24514143       1.10636957       2.70410319       0.00000000 NULL
P        2.20353428       2.14476565       4.57335328       0.00000000 NULL
P        0.22813762       3.18119692       4.57335328       0.00000000 NULL
P       -0.22813761       3.18119692       1.07069562       0.00000000 NULL
P        2.65980952       2.14476565       1.07069562       0.00000000 NULL
8
Lattice="4.958066585534142 1.7411684960654996e-18 0.0 -2.479033292767071 5.376943390856354 0.0 0.0 0.0 6.123767266605095" Properties=species:S:1:pos:R:3:initial_magmoms:R:1:castep_labels:S:1 n_minim_iter=7 pbc="T T T"
P        3.70060146       1.10273533       3.19257925       0.00000000 NULL
P       -1.22156816       4.27420807       3.19257925       0.00000000 NULL
P        1.22156816       4.27420807       2.93118802       0.00000000 NULL
P        1.25746513       1.10273533       2.93118802       0.00000000 NULL
P        2.24114132       2.16872796       4.96547701       0.00000000 NULL
P        0.23789198       3.20821545       4.96547701       0.00000000 NULL
P       -0.23789197       3.20821545       1.15829025       0.00000000 NULL
P        2.71692527       2.16872796       1.15829025       0.00000000 NULL
8
Lattice="4.775904021959969 1.3976458726750146e-18 0.0 -2.3879520109799843 5.251505755804771 0.0 0.0 0.0 5.964373157331957" Properties=species:S:1:pos:R:3:initial_magmoms:R:1:castep_labels:S:1 n_minim_iter=8 pbc="T T T"
P        3.56513077       1.07480661       3.10905021       0.00000000 NULL
P       -1.17717876       4.17669915       3.10905021       0.00000000 NULL
P        1.17717876       4.17669915       2.85532295       0.00000000 NULL
P        1.21077325       1.07480661       2.85532295       0.00000000 NULL
P        2.15498107       2.11897397       4.83804133       0.00000000 NULL
P        0.23297094       3.13253180       4.83804133       0.00000000 NULL
P       -0.23297094       3.13253180       1.12633183       0.00000000 NULL
P        2.62092295       2.11897397       1.12633183       0.00000000 NULL
8
Lattice="4.774354889932552 -8.027010968884978e-18 0.0 -2.387177444966276 5.303384537703391 0.0 0.0 0.0 5.988208492388776" Properties=species:S:1:pos:R:3:initial_magmoms:R:1:castep_labels:S:1 n_minim_iter=9 pbc="T T T"
P        3.56646092       1.08430130       3.12152085       0.00000000 NULL
P       -1.17928347       4.21908325       3.12152085       0.00000000 NULL
P        1.17928347       4.21908325       2.86668764       0.00000000 NULL
P        1.20789398       1.08430130       2.86668764       0.00000000 NULL
P        2.15460784       2.13984029       4.85950340       0.00000000 NULL
P        0.23256961       3.16354426       4.85950340       0.00000000 NULL
P       -0.23256961       3.16354426       1.12870509       0.00000000 NULL
P        2.61974706       2.13984029       1.12870509       0.00000000 NULL
