16
Lattice="5.708359999999999 8.166521149951945e-16 1.1324330000048105e-16 -1.1227243390251296 6.553819311108644 1.3405874550425504e-15 -0.9003409332291552 -1.458164275055869 9.007017770100314" Properties=species:S:1:pos:R:3:initial_magmoms:R:1:castep_labels:S:1 n_minim_iter=1 pbc="T T T"
P        4.18874232       3.23180241       6.15913656       0.00000000 NULL
P        1.24825831      -0.42778502       3.75341165       0.00000000 NULL
P        0.99253749       4.60036549       4.76389907       0.00000000 NULL
P        2.03548753       0.20218932       7.56189311       0.00000000 NULL
P        2.41734389       1.24708947       0.95160224       0.00000000 NULL
P        2.59505321       0.81024883       4.64568376       0.00000000 NULL
P        0.98323100       2.64645965       5.23512102       0.00000000 NULL
P        0.14789112       4.35022263       6.60802561       0.00000000 NULL
P        4.29984307       1.12535151       0.20236607       0.00000000 NULL
P        1.76334190       2.21960872       7.04343295       0.00000000 NULL
P        0.02505928       1.85622866       3.60581725       0.00000000 NULL
P        3.63408709       2.34948138       3.75612637       0.00000000 NULL
P        4.54414088       1.08380182       5.08733027       0.00000000 NULL
P       -0.48788730       2.67849538       7.98870686       0.00000000 NULL
P        3.44069615      -0.19815234       6.18190990       0.00000000 NULL
P        0.42115678       0.83640930       6.36728424       0.00000000 NULL
16
Lattice="5.74020031004078 0.0022408459094454937 0.002986970759782113 -1.126413978755342 6.584542143522722 -0.007559014266702354 -0.9012222646790563 -1.4750324042829859 9.052223960817203" Properties=species:S:1:pos:R:3:initial_magmoms:R:1:castep_labels:S:1 n_minim_iter=2 pbc="T T T"
P        4.21630413       3.24225745       6.18813061       0.00000000 NULL
P        1.25677557      -0.43332351       3.77261373       0.00000000 NULL
P        1.00262093       4.61768576       4.78267257       0.00000000 NULL
P        2.05089764       0.19580163       7.60021237       0.00000000 NULL
P        2.43169240       1.25294511       0.95625481       0.00000000 NULL
P        2.61188611       0.81025774       4.66878125       0.00000000 NULL
P        0.99273065       2.65377374       5.25826576       0.00000000 NULL
P        0.15384184       4.36415940       6.63610739       0.00000000 NULL
P        4.32452114       1.13214253       0.20437039       0.00000000 NULL
P        1.77797476       2.22372608       7.07693171       0.00000000 NULL
P        0.02793454       1.86122548       3.62100860       0.00000000 NULL
P        3.65711720       2.35851534       3.77356473       0.00000000 NULL
P        4.57276111       1.08524456       5.11354097       0.00000000 NULL
P       -0.48537750       2.68249647       8.02491673       0.00000000 NULL
P        3.46325185      -0.20482120       6.21435447       0.00000000 NULL
P        0.42697650       0.83343497       6.39795504       0.00000000 NULL
16
Lattice="6.170919174647151 0.03217245254778849 0.04207378322029984 -1.1767633279505474 6.998459672171433 -0.11235208249819968 -0.9151287824189495 -1.7066094915796515 9.665278783020169" Properties=species:S:1:pos:R:3:initial_magmoms:R:1:castep_labels:S:1 n_minim_iter=3 pbc="T T T"
P        4.58742593       3.37993497       6.57871074       0.00000000 NULL
P        1.37109394      -0.50980638       4.03246730       0.00000000 NULL
P        1.13775387       4.84897271       5.03463796       0.00000000 NULL
P        2.25765145       0.10581341       8.11896505       0.00000000 NULL
P        2.62568808       1.33123141       1.01800757       0.00000000 NULL
P        2.83821676       0.80801864       4.98053385       0.00000000 NULL
P        1.11999222       2.74964905       5.57023425       0.00000000 NULL
P        0.23249447       4.54867761       7.01465133       0.00000000 NULL
P        4.65802025       1.22335893       0.23009110       0.00000000 NULL
P        1.97428925       2.27580937       7.52951868       0.00000000 NULL
P        0.06594147       1.92684915       3.82573619       0.00000000 NULL
P        3.96752858       2.47847108       4.00761491       0.00000000 NULL
P        4.95867275       1.10193921       5.46700839       0.00000000 NULL
P       -0.45346182       2.73252789       8.51433133       0.00000000 NULL
P        3.76704368      -0.29811974       6.65310934       0.00000000 NULL
P        0.50407856       0.78999705       6.81308674       0.00000000 NULL
16
Lattice="6.2553580557570285 0.025009035543231396 0.035018177103391813 -1.201595210957247 7.0918363372038025 -0.1483251611095317 -0.9377496948928895 -1.7772871440550164 9.83592449871832" Properties=species:S:1:pos:R:3:initial_magmoms:R:1:castep_labels:S:1 n_minim_iter=4 pbc="T T T"
P        4.63751123       3.38537807       6.66827048       0.00000000 NULL
P        1.38590241      -0.53913106       4.10007746       0.00000000 NULL
P        1.14226140       4.88840751       5.09120338       0.00000000 NULL
P        2.27869879       0.06156032       8.25389058       0.00000000 NULL
P        2.66106335       1.34022056       1.02230203       0.00000000 NULL
P        2.86678793       0.78941618       5.05498328       0.00000000 NULL
P        1.12602118       2.75429678       5.64531411       0.00000000 NULL
P        0.22033327       4.57241914       7.10921978       0.00000000 NULL
P        4.71723671       1.23270890       0.22235684       0.00000000 NULL
P        1.98871882       2.26649818       7.64378630       0.00000000 NULL
P        0.06014993       1.93177676       3.87674324       0.00000000 NULL
P        4.01243469       2.48723308       4.05479382       0.00000000 NULL
P        5.01932253       1.08254293       5.54675968       0.00000000 NULL
P       -0.47367525       2.72566208       8.64160048       0.00000000 NULL
P        3.81126651      -0.34358952       6.76040936       0.00000000 NULL
P        0.50075063       0.76341032       6.92440336       0.00000000 NULL
16
Lattice="6.267543624967953 0.01563033342616899 0.024875326930811494 -1.214759649462513 7.105652786756375 -0.17079843602099581 -0.9532799540436249 -1.8120985335496185 9.896376869742479" Properties=species:S:1:pos:R:3:initial_magmoms:R:1:castep_labels:S:1 n_minim_iter=5 pbc="T T T"
P        4.63090777       3.36163322       6.68901027       0.00000000 NULL
P        1.38380762      -0.55651046       4.12189409       0.00000000 NULL
P        1.12964244       4.88118013       5.09983498       0.00000000 NULL
P        2.27023065       0.02897590       8.29722097       0.00000000 NULL
P        2.66589605       1.33507831       1.01504788       0.00000000 NULL
P        2.85946847       0.76878924       5.07419016       0.00000000 NULL
P        1.11584160       2.73644227       5.66247500       0.00000000 NULL
P        0.20107441       4.55561091       7.13267429       0.00000000 NULL
P        4.72009945       1.22719468       0.21230557       0.00000000 NULL
P        1.97508020       2.24272048       7.67676804       0.00000000 NULL
P        0.05093330       1.92084824       3.88899556       0.00000000 NULL
P        4.00859549       2.47245862       4.06030971       0.00000000 NULL
P        5.01904805       1.05885419       5.56508364       0.00000000 NULL
P       -0.49271853       2.70222769       8.67739167       0.00000000 NULL
P        3.80799095      -0.37541841       6.79100692       0.00000000 NULL
P        0.48872867       0.73966170       6.96163455       0.00000000 NULL
16
Lattice="6.2610826570267735 0.006678013403225637 0.015074645301223788 -1.2237671405605475 7.0957652325625595 -0.19297617939044612 -0.9654382423181466 -1.841223267464414 9.927079435292733" Properties=species:S:1:pos:R:3:initial_magmoms:R:1:castep_labels:S:1 n_minim_iter=6 pbc="T T T"
P        4.61158230       3.32675166       6.69094545       0.00000000 NULL
P        1.37816815      -0.57226423       4.13152691       0.00000000 NULL
P        1.11461724       4.85855160       5.09328313       0.00000000 NULL
P        2.25601740      -0.00405449       8.31625002       0.00000000 NULL
P        2.66397891       1.32579944       1.00366749       0.00000000 NULL
P        2.84337507       0.74573635       5.07829987       0.00000000 NULL
P        1.10339967       2.70918953       5.66230266       0.00000000 NULL
P        0.18205518       4.52339837       7.13448679       0.00000000 NULL
P        4.70773785       1.21806215       0.20216539       0.00000000 NULL
P        1.95562830       2.21162424       7.68721196       0.00000000 NULL
P        0.04178781       1.90312192       3.88938178       0.00000000 NULL
P        3.99316018       2.44954741       4.05378327       0.00000000 NULL
P        5.00437522       1.03228664       5.56691691       0.00000000 NULL
P       -0.50914049       2.66973210       8.68599603       0.00000000 NULL
P        3.79348325      -0.40633478       6.80114308       0.00000000 NULL
P        0.47582793       0.71325034       6.97897861       0.00000000 NULL
16
Lattice="6.239475374246692 -0.015923213506812587 -0.008659293865328802 -1.245466075999167 7.050821009196317 -0.2813047117373358 -0.9937058689275797 -1.9544764526616958 10.019567578746653" Properties=species:S:1:pos:R:3:initial_magmoms:R:1:castep_labels:S:1 n_minim_iter=7 pbc="T T T"
P        4.56118477       3.19790837       6.69428953       0.00000000 NULL
P        1.36522891      -0.63085990       4.16123781       0.00000000 NULL
P        1.07916778       4.77128701       5.05817643       0.00000000 NULL
P        2.22235378      -0.12820600       8.37587232       0.00000000 NULL
P        2.66426569       1.29475330       0.96138775       0.00000000 NULL
P        2.79543956       0.66295315       5.08853708       0.00000000 NULL
P        1.07578786       2.60455084       5.64995581       0.00000000 NULL
P        0.13475076       4.39639931       7.12367122       0.00000000 NULL
P        4.66374139       1.19129086       0.17377500       0.00000000 NULL
P        1.90276805       2.09462462       7.71419313       0.00000000 NULL
P        0.01871967       1.83293906       3.88102302       0.00000000 NULL
P        3.94952253       2.36704905       4.02732638       0.00000000 NULL
P        4.96530304       0.93904845       5.57148187       0.00000000 NULL
P       -0.54656835       2.54173880       8.69525647       0.00000000 NULL
P        3.75352564      -0.51905613       6.83171492       0.00000000 NULL
P        0.44325754       0.61075389       7.03215033       0.00000000 NULL
16
Lattice="6.285293312140186 0.020202088078719607 0.027369252775678664 -1.2130017981481354 7.0412974204049945 -0.35748195468688215 -0.9533122408685446 -2.0545891963437604 10.05609015582601" Properties=species:S:1:pos:R:3:initial_magmoms:R:1:castep_labels:S:1 n_minim_iter=8 pbc="T T T"
P        4.65594767       3.15550216       6.72456399       0.00000000 NULL
P        1.39821310      -0.66795119       4.18185970       0.00000000 NULL
P        1.15394440       4.74264976       5.03085297       0.00000000 NULL
P        2.29488702      -0.20216805       8.42277198       0.00000000 NULL
P        2.71346262       1.30240497       0.94720336       0.00000000 NULL
P        2.83880341       0.63507781       5.10871854       0.00000000 NULL
P        1.14415808       2.55087913       5.63602848       0.00000000 NULL
P        0.20616662       4.32629520       7.09673653       0.00000000 NULL
P        4.68671109       1.21729664       0.19355675       0.00000000 NULL
P        1.96763692       2.03901473       7.73451054       0.00000000 NULL
P        0.05029224       1.78852081       3.86434987       0.00000000 NULL
P        4.01219429       2.35124805       4.03066252       0.00000000 NULL
P        5.04401231       0.91942974       5.60358828       0.00000000 NULL
P       -0.47716762       2.45550233       8.67259540       0.00000000 NULL
P        3.81431903      -0.57550810       6.86767183       0.00000000 NULL
P        0.48914855       0.54007108       7.06435665       0.00000000 NULL
16
Lattice="6.254689764614496 0.015320903910980595 0.018839782954037557 -1.212586801790465 6.963324324863037 -0.3849744367538995 -0.9606968296716707 -2.076346309442104 10.030575816634157" Properties=species:S:1:pos:R:3:initial_magmoms:R:1:castep_labels:S:1 n_minim_iter=9 pbc="T T T"
P        4.62276332       3.08430241       6.68910454       0.00000000 NULL
P        1.38793524      -0.68261966       4.16728096       0.00000000 NULL
P        1.14098772       4.67095172       4.99179843       0.00000000 NULL
P        2.27456201      -0.24203898       8.39598399       0.00000000 NULL
P        2.70374487       1.28235431       0.92747878       0.00000000 NULL
P        2.81322097       0.60470562       5.08293342       0.00000000 NULL
P        1.13319804       2.49387563       5.60012386       0.00000000 NULL
P        0.19170594       4.24412572       7.05106539       0.00000000 NULL
P        4.65521789       1.19938297       0.18287798       0.00000000 NULL
P        1.94100803       1.98174110       7.69960433       0.00000000 NULL
P        0.04165747       1.74778307       3.84084274       0.00000000 NULL
P        3.98334140       2.30275583       3.99901560       0.00000000 NULL
P        5.01238050       0.88312630       5.57286603       0.00000000 NULL
P       -0.48620875       2.38805133       8.62562790       0.00000000 NULL
P        3.78500784      -0.60857542       6.83708557       0.00000000 NULL
P        0.47544416       0.50049599       7.04492020       0.00000000 NULL
16
Lattice="6.2881821630186066 0.019165119268130294 0.020258779230464936 -1.2147605326022708 6.978844979618059 -0.4053078493730601 -0.9647223554018544 -2.1081350298925834 10.08162682792307" Properties=species:S:1:pos:R:3:initial_magmoms:R:1:castep_labels:S:1 n_minim_iter=10 pbc="T T T"
P        4.65105296       3.07567705       6.71596767       0.00000000 NULL
P        1.39603864      -0.69550274       4.18750547       0.00000000 NULL
P        1.15306184       4.67128610       5.00277513       0.00000000 NULL
P        2.28946437      -0.26440712       8.43806986       0.00000000 NULL
P        2.72113297       1.28494256       0.92631539       0.00000000 NULL
P        2.82846357       0.59586033       5.10471591       0.00000000 NULL
P        1.14449387       2.48475541       5.61788835       0.00000000 NULL
P        0.19726087       4.23490256       7.07143114       0.00000000 NULL
P        4.67863907       1.20447231       0.18218747       0.00000000 NULL
P        1.95306636       1.96853155       7.73196697       0.00000000 NULL
P        0.04321454       1.74026965       3.85242131       0.00000000 NULL
P        4.00606081       2.29984654       4.01088218       0.00000000 NULL
P        5.04177170       0.87459811       5.59704270       0.00000000 NULL
P       -0.48414473       2.36966640       8.65647418       0.00000000 NULL
P        3.80580557      -0.62845503       6.86908967       0.00000000 NULL
P        0.47893008       0.48222524       7.07967422       0.00000000 NULL
16
Lattice="6.292365863331565 0.021228533360624406 0.020881076137244943 -1.2132143615553046 6.967348884365818 -0.4206758784873404 -0.9649274080020418 -2.126945315727541 10.086988184309334" Properties=species:S:1:pos:R:3:initial_magmoms:R:1:castep_labels:S:1 n_minim_iter=11 pbc="T T T"
P        4.65626917       3.05674700       6.71359271       0.00000000 NULL
P        1.39756119      -0.70404612       4.18887853       0.00000000 NULL
P        1.15765247       4.65510655       4.99355048       0.00000000 NULL
P        2.29278579      -0.28248260       8.44185781       0.00000000 NULL
P        2.72558132       1.28222385       0.92124326       0.00000000 NULL
P        2.82977233       0.58604815       5.10363303       0.00000000 NULL
P        1.14877505       2.46824717       5.61175682       0.00000000 NULL
P        0.19973893       4.21212534       7.06199332       0.00000000 NULL
P        4.67958063       1.20366987       0.18066169       0.00000000 NULL
P        1.95420592       1.95025452       7.73015451       0.00000000 NULL
P        0.04350898       1.72769962       3.84817193       0.00000000 NULL
P        4.00914006       2.28843854       4.00573625       0.00000000 NULL
P        5.04661052       0.86396118       5.59604766       0.00000000 NULL
P       -0.48154938       2.34612896       8.64956194       0.00000000 NULL
P        3.80796239      -0.64358419       6.86993984       0.00000000 NULL
P        0.47940660       0.46547936       7.08292918       0.00000000 NULL
16
Lattice="6.306854755211685 0.02712255252985696 0.022563881024616036 -1.2092970709338233 6.944263936582761 -0.45973360058777024 -0.9660629945981418 -2.1762194539581317 10.107137038162389" Properties=species:S:1:pos:R:3:initial_magmoms:R:1:castep_labels:S:1 n_minim_iter=12 pbc="T T T"
P        4.67272780       3.01218827       6.71177134       0.00000000 NULL
P        1.40217651      -0.72593655       4.19511173       0.00000000 NULL
P        1.17056829       4.61814709       4.97357630       0.00000000 NULL
P        2.30265303      -0.32783664       8.45684539       0.00000000 NULL
P        2.73833032       1.27685415       0.90950695       0.00000000 NULL
P        2.83535087       0.56225200       5.10425162       0.00000000 NULL
P        1.16060110       2.42916009       5.60015592       0.00000000 NULL
P        0.20674249       4.15842850       7.04276893       0.00000000 NULL
P        4.68548077       1.20312717       0.17691667       0.00000000 NULL
P        1.95888525       1.90601817       7.73044813       0.00000000 NULL
P        0.04454169       1.69761292       3.84016600       0.00000000 NULL
P        4.01980977       2.26215815       3.99549966       0.00000000 NULL
P        5.06214884       0.83840343       5.59724545       0.00000000 NULL
P       -0.47492043       2.28872389       8.63815009       0.00000000 NULL
P        3.81584085      -0.68165064       6.87681037       0.00000000 NULL
P        0.48101891       0.42374333       7.09559623       0.00000000 NULL
16
Lattice="6.348364614887579 0.049013808927033546 0.0272178462529899 -1.1923277121070124 6.879837620725225 -0.5842178189506354 -0.9708587198677221 -2.336118567869318 10.174104593356006" Properties=species:S:1:pos:R:3:initial_magmoms:R:1:castep_labels:S:1 n_minim_iter=13 pbc="T T T"
P        4.72251777       2.87654983       6.70585261       0.00000000 NULL
P        1.41481741      -0.79535502       4.21604340       0.00000000 NULL
P        1.21301756       4.50558757       4.91129651       0.00000000 NULL
P        2.33126994      -0.47030920       8.50571226       0.00000000 NULL
P        2.77611942       1.26372324       0.87392169       0.00000000 NULL
P        2.85281041       0.48967349       5.10643995       0.00000000 NULL
P        1.19785839       2.31054191       5.56527475       0.00000000 NULL
P        0.23037913       3.99354509       6.98244988       0.00000000 NULL
P        4.70341460       1.20491521       0.16403546       0.00000000 NULL
P        1.97322693       1.76822031       7.73139730       0.00000000 NULL
P        0.04792608       1.60450268       3.81732280       0.00000000 NULL
P        4.05195801       2.18386037       3.96368661       0.00000000 NULL
P        5.10772844       0.76095438       5.60129654       0.00000000 NULL
P       -0.45306442       2.10861561       8.60545764       0.00000000 NULL
P        3.83652758      -0.80094218       6.90094431       0.00000000 NULL
P        0.48483186       0.29182121       7.13725817       0.00000000 NULL
16
Lattice="6.36958084297482 0.08742378011383128 0.01800222232710154 -1.1524017026669466 6.8178438275382005 -0.7495125912929829 -0.9985575992042081 -2.559722694611402 10.248790795221336" Properties=species:S:1:pos:R:3:initial_magmoms:R:1:castep_labels:S:1 n_minim_iter=14 pbc="T T T"
P        4.75218128       2.71065844       6.67351915       0.00000000 NULL
P        1.41325522      -0.88922886       4.23326172       0.00000000 NULL
P        1.26056790       4.36890044       4.81790464       0.00000000 NULL
P        2.33712030      -0.65528974       8.54920292       0.00000000 NULL
P        2.80874595       1.25836895       0.82117521       0.00000000 NULL
P        2.85539194       0.40418711       5.08834682       0.00000000 NULL
P        1.23228639       2.16839978       5.50547466       0.00000000 NULL
P        0.24949405       3.78815042       6.88278330       0.00000000 NULL
P        4.70783295       1.21691911       0.13416210       0.00000000 NULL
P        1.96556629       1.59239598       7.70846235       0.00000000 NULL
P        0.04231721       1.48360658       3.78526459       0.00000000 NULL
P        4.06744014       2.09355041       3.90268778       0.00000000 NULL
P        5.12986549       0.66983581       5.58033988       0.00000000 NULL
P       -0.43745563       1.87182395       8.54844549       0.00000000 NULL
P        3.82222399      -0.96084776       6.91370194       0.00000000 NULL
P        0.46787601       0.11623869       7.18192566       0.00000000 NULL
16
Lattice="6.439503865281211 0.09434474852646463 -0.014650645567746274 -1.1582081869404124 6.890574779318587 -0.8441456082742554 -1.0628757973240275 -2.716180888451028 10.391194806019922" Properties=species:S:1:pos:R:3:initial_magmoms:R:1:castep_labels:S:1 n_minim_iter=15 pbc="T T T"
P        4.77291473       2.64928674       6.70349505       0.00000000 NULL
P        1.40953594      -0.95878108       4.27513943       0.00000000 NULL
P        1.26625142       4.35842133       4.81042230       0.00000000 NULL
P        2.32621027      -0.76638448       8.64438608       0.00000000 NULL
P        2.84220778       1.27163517       0.78893724       0.00000000 NULL
P        2.86252017       0.36608778       5.10685722       0.00000000 NULL
P        1.23485487       2.12823071       5.51699681       0.00000000 NULL
P        0.21807390       3.73591442       6.88476621       0.00000000 NULL
P        4.75351250       1.22867811       0.09906770       0.00000000 NULL
P        1.93515059       1.51950339       7.75684493       0.00000000 NULL
P        0.01173389       1.43489435       3.80691794       0.00000000 NULL
P        4.08883693       2.06820206       3.88391095       0.00000000 NULL
P        5.16355430       0.62279776       5.59225482       0.00000000 NULL
P       -0.47737114       1.77031889       8.59913895       0.00000000 NULL
P        3.81502491      -1.07922051       6.97023880       0.00000000 NULL
P        0.42430357       0.01846424       7.27989869       0.00000000 NULL
16
Lattice="6.367193385619934 0.08907120881725974 -0.015436492945888227 -1.150040708172743 6.842102349925248 -0.8351762335283164 -1.051363623836719 -2.6922193544128232 10.296928438298508" Properties=species:S:1:pos:R:3:initial_magmoms:R:1:castep_labels:S:1 n_minim_iter=16 pbc="T T T"
P        4.71710490       2.62833898       6.64591161       0.00000000 NULL
P        1.39480994      -0.95225023       4.23585046       0.00000000 NULL
P        1.24913686       4.32933817       4.76932361       0.00000000 NULL
P        2.30047955      -0.75857514       8.56626794       0.00000000 NULL
P        2.81137417       1.26223394       0.78008158       0.00000000 NULL
P        2.82884438       0.36583088       5.05833428       0.00000000 NULL
P        1.21992600       2.11577013       5.46674223       0.00000000 NULL
P        0.21121628       3.71151185       6.82062238       0.00000000 NULL
P        4.69682836       1.21617095       0.09823313       0.00000000 NULL
P        1.90750971       1.51094706       7.68665424       0.00000000 NULL
P        0.00748634       1.42361753       3.77490732       0.00000000 NULL
P        4.04056165       2.05184938       3.84758870       0.00000000 NULL
P        5.10447863       0.61917411       5.53921744       0.00000000 NULL
P       -0.47384850       1.76044402       8.51929484       0.00000000 NULL
P        3.76878392      -1.07510245       6.90615204       0.00000000 NULL
P        0.41667589       0.02029485       7.21808808       0.00000000 NULL
16
Lattice="6.375825365837388 0.0920215156081829 -0.017289270302250876 -1.1483511785467315 6.853548350501542 -0.8443392542122372 -1.056402156035174 -2.70845411305081 10.314834833163545" Properties=species:S:1:pos:R:3:initial_magmoms:R:1:castep_labels:S:1 n_minim_iter=17 pbc="T T T"
P        4.72333744       2.62650658       6.65331719       0.00000000 NULL
P        1.39573291      -0.95891874       4.24191085       0.00000000 NULL
P        1.25289103       4.33256136       4.77160254       0.00000000 NULL
P        2.30224461      -0.76781072       8.57950690       0.00000000 NULL
P        2.81586480       1.26565864       0.77818372       0.00000000 NULL
P        2.83195597       0.36448423       5.06258920       0.00000000 NULL
P        1.22319687       2.11489526       5.47095248       0.00000000 NULL
P        0.21158390       3.71016084       6.82361681       0.00000000 NULL
P        4.70345549       1.21965597       0.09598437       0.00000000 NULL
P        1.90730848       1.50678859       7.69502377       0.00000000 NULL
P        0.00552833       1.41983174       3.77919124       0.00000000 NULL
P        4.04567685       2.05285311       3.84810211       0.00000000 NULL
P        5.11087556       0.61776020       5.54336204       0.00000000 NULL
P       -0.47487705       1.75255063       8.52830510       0.00000000 NULL
P        3.77011810      -1.08580084       6.91573100       0.00000000 NULL
P        0.41409110       0.01141808       7.23129873       0.00000000 NULL
16
Lattice="6.374136813872127 0.09350365660393882 -0.019717427124850792 -1.1463174135653946 6.857673547161235 -0.8515794590327017 -1.0603457377728611 -2.7202772197397045 10.319367824655371" Properties=species:S:1:pos:R:3:initial_magmoms:R:1:castep_labels:S:1 n_minim_iter=18 pbc="T T T"
P        4.72066798       2.62151878       6.65221989       0.00000000 NULL
P        1.39430026      -0.96434423       4.24236475       0.00000000 NULL
P        1.25303557       4.33141992       4.76823436       0.00000000 NULL
P        2.29956587      -0.77560024       8.58140368       0.00000000 NULL
P        2.81561993       1.26726807       0.77505994       0.00000000 NULL
P        2.82973856       0.36281027       5.06000441       0.00000000 NULL
P        1.22337380       2.11219718       5.46828285       0.00000000 NULL
P        0.20988910       3.70551565       6.81809483       0.00000000 NULL
P        4.70193863       1.22078756       0.09333449       0.00000000 NULL
P        1.90245196       1.50147319       7.69350212       0.00000000 NULL
P        0.00264183       1.41478069       3.77905735       0.00000000 NULL
P        4.04335056       2.05118485       3.84349048       0.00000000 NULL
P        5.10823466       0.61542529       5.53986289       0.00000000 NULL
P       -0.47649084       1.74386743       8.52647441       0.00000000 NULL
P        3.76460649      -1.09548482       6.91603127       0.00000000 NULL
P        0.40995763       0.00332640       7.23543428       0.00000000 NULL
16
Lattice="6.352726908435749 0.11088770939286999 -0.05940009002527891 -1.1221477110933917 6.9185796317963755 -0.9530648624255758 -1.1240234035824115 -2.8875301289543587 10.391017890739679" Properties=species:S:1:pos:R:3:initial_magmoms:R:1:castep_labels:S:1 n_minim_iter=19 pbc="T T T"
P        4.67671224       2.54861942       6.63731624       0.00000000 NULL
P        1.37183207      -1.04204087       4.25077877       0.00000000 NULL
P        1.24721296       4.31589034       4.72247713       0.00000000 NULL
P        2.25515808      -0.88697779       8.61108027       0.00000000 NULL
P        2.81105254       1.28888903       0.72942050       0.00000000 NULL
P        2.79482426       0.33795116       5.02367299       0.00000000 NULL
P        1.21983967       2.07439342       5.43331929       0.00000000 NULL
P        0.17728410       3.64158899       6.74420813       0.00000000 NULL
P        4.68206944       1.23419584       0.05213308       0.00000000 NULL
P        1.82619503       1.42565870       7.67519217       0.00000000 NULL
P       -0.04274726       1.34308981       3.78091131       0.00000000 NULL
P        4.00741157       2.02635455       3.77720494       0.00000000 NULL
P        5.06753089       0.58029322       5.48904406       0.00000000 NULL
P       -0.50879527       1.62218844       8.50773457       0.00000000 NULL
P        3.68298957      -1.23513248       6.92301968       0.00000000 NULL
P        0.34497135      -0.11237595       7.29845462       0.00000000 NULL
16
Lattice="6.361010728432031 0.09122912033127405 -0.16280140194301712 -1.1463471811602697 6.97999058209589 -0.9142761306337458 -1.283461537101197 -2.871874182669086 10.455562076138001" Properties=species:S:1:pos:R:3:initial_magmoms:R:1:castep_labels:S:1 n_minim_iter=20 pbc="T T T"
P        4.56802627       2.56808121       6.65069429       0.00000000 NULL
P        1.32941611      -1.05948636       4.24166140       0.00000000 NULL
P        1.14840044       4.38883272       4.75792250       0.00000000 NULL
P        2.13938906      -0.85447583       8.62120986       0.00000000 NULL
P        2.79358736       1.31012196       0.68945398       0.00000000 NULL
P        2.71705301       0.38816098       4.97220626       0.00000000 NULL
P        1.15482772       2.13080401       5.45489918       0.00000000 NULL
P        0.04371028       3.70620122       6.74637462       0.00000000 NULL
P        4.68325178       1.21968810      -0.01477688       0.00000000 NULL
P        1.65062276       1.47624636       7.68825100       0.00000000 NULL
P       -0.14740825       1.32707406       3.83529842       0.00000000 NULL
P        3.93731984       2.04943376       3.71212782       0.00000000 NULL
P        4.98613222       0.61894525       5.40645326       0.00000000 NULL
P       -0.64915261       1.65417897       8.56614475       0.00000000 NULL
P        3.55815128      -1.28525389       6.90402902       0.00000000 NULL
P        0.20095627      -0.11082192       7.38478931       0.00000000 NULL
16
Lattice="6.283982531746728 0.16104631167256342 -0.06776259639442195 -1.0510394766585025 7.003635861890312 -1.0423056764032148 -1.1391884157992338 -3.0414659163154023 10.4853282880268" Properties=species:S:1:pos:R:3:initial_magmoms:R:1:castep_labels:S:1 n_minim_iter=21 pbc="T T T"
P        4.66114645       2.53016173       6.68641424       0.00000000 NULL
P        1.37332559      -1.11119305       4.27553462       0.00000000 NULL
P        1.26759201       4.35369832       4.70824905       0.00000000 NULL
P        2.24966633      -0.95416717       8.66989878       0.00000000 NULL
P        2.79468541       1.33896805       0.70791681       0.00000000 NULL
P        2.76995360       0.35643279       5.00156372       0.00000000 NULL
P        1.26723463       2.07767574       5.44568288       0.00000000 NULL
P        0.20367074       3.62595694       6.67804935       0.00000000 NULL
P        4.63907646       1.27033610       0.03975902       0.00000000 NULL
P        1.76570566       1.39401380       7.69161591       0.00000000 NULL
P       -0.07156637       1.26666815       3.82151513       0.00000000 NULL
P        3.97786926       2.04817967       3.73178114       0.00000000 NULL
P        5.01904483       0.60407549       5.47181359       0.00000000 NULL
P       -0.47487927       1.52738736       8.53560061       0.00000000 NULL
P        3.60662017      -1.35746043       6.98802614       0.00000000 NULL
P        0.31037007      -0.21856614       7.40415649       0.00000000 NULL
16
Lattice="6.3456098878103315 0.12631494836913285 -0.13906900886550477 -1.103035778945242 7.029365677164265 -1.025661659984577 -1.2525484215323743 -3.0365928774791318 10.560934489469263" Properties=species:S:1:pos:R:3:initial_magmoms:R:1:castep_labels:S:1 n_minim_iter=22 pbc="T T T"
P        4.60826805       2.51592887       6.68520894       0.00000000 NULL
P        1.34779732      -1.12081224       4.28583000       0.00000000 NULL
P        1.18869485       4.36595894       4.73056858       0.00000000 NULL
P        2.17563111      -0.96082820       8.69840844       0.00000000 NULL
P        2.80047159       1.32835654       0.68441077       0.00000000 NULL
P        2.73533885       0.34826221       4.99815928       0.00000000 NULL
P        1.20198659       2.08147769       5.47137915       0.00000000 NULL
P        0.09632721       3.64208795       6.72013633       0.00000000 NULL
P        4.67768158       1.24691121      -0.01069947       0.00000000 NULL
P        1.67564347       1.39385912       7.72333418       0.00000000 NULL
P       -0.12919511       1.27019669       3.85162043       0.00000000 NULL
P        3.95655573       2.03448950       3.71114833       0.00000000 NULL
P        4.99820325       0.58344337       5.45039965       0.00000000 NULL
P       -0.59379102       1.54033158       8.60027674       0.00000000 NULL
P        3.57041451      -1.38089367       6.99058139       0.00000000 NULL
P        0.22534057      -0.21836959       7.45158863       0.00000000 NULL
16
Lattice="6.305712622647682 0.1270994166168152 -0.1428633672261052 -1.094288101186787 7.00343394905061 -1.015461631603764 -1.252443066544937 -3.0179889241396425 10.503644510409794" Properties=species:S:1:pos:R:3:initial_magmoms:R:1:castep_labels:S:1 n_minim_iter=23 pbc="T T T"
P        4.57625706       2.51244533       6.64968254       0.00000000 NULL
P        1.33836696      -1.11417329       4.26097059       0.00000000 NULL
P        1.17744850       4.35619511       4.70635639       0.00000000 NULL
P        2.15734083      -0.94900932       8.64887480       0.00000000 NULL
P        2.78377770       1.32575366       0.67895120       0.00000000 NULL
P        2.71479625       0.35350916       4.96683897       0.00000000 NULL
P        1.19287636       2.07929130       5.44387276       0.00000000 NULL
P        0.09130449       3.63505296       6.68270120       0.00000000 NULL
P        4.64700126       1.24267903      -0.01289947       0.00000000 NULL
P        1.65684676       1.39530055       7.68153349       0.00000000 NULL
P       -0.13238225       1.26603487       3.83446484       0.00000000 NULL
P        3.92957941       2.03064779       3.68808358       0.00000000 NULL
P        4.96221587       0.58832423       5.41708897       0.00000000 NULL
P       -0.59494861       1.54082775       8.55547589       0.00000000 NULL
P        3.54257548      -1.37221708       6.95132014       0.00000000 NULL
P        0.21773012      -0.21309502       7.41393715       0.00000000 NULL
16
Lattice="6.317850974073476 0.12925706249096794 -0.14606195422424656 -1.0941982682723965 7.019144660264586 -1.0206954542491746 -1.2599556597790609 -3.029976649036288 10.523393960980647" Properties=species:S:1:pos:R:3:initial_magmoms:R:1:castep_labels:S:1 n_minim_iter=24 pbc="T T T"
P        4.58335500       2.51601514       6.65845445       0.00000000 NULL
P        1.33997439      -1.11899834       4.26754750       0.00000000 NULL
P        1.17798978       4.36510840       4.71075421       0.00000000 NULL
P        2.15848201      -0.95384461       8.66260753       0.00000000 NULL
P        2.78908923       1.32971013       0.67807703       0.00000000 NULL
P        2.71827387       0.35418925       4.97186916       0.00000000 NULL
P        1.19490374       2.08216892       5.45211206       0.00000000 NULL
P        0.08939725       3.64064869       6.68946074       0.00000000 NULL
P        4.65626460       1.24620640      -0.01562083       0.00000000 NULL
P        1.65556836       1.39559101       7.69265645       0.00000000 NULL
P       -0.13474901       1.26545856       3.84133746       0.00000000 NULL
P        3.93600298       2.03467624       3.68987948       0.00000000 NULL
P        4.96908234       0.58929122       5.42313668       0.00000000 NULL
P       -0.59884423       1.53959527       8.56967592       0.00000000 NULL
P        3.54639799      -1.37891434       6.96296523       0.00000000 NULL
P        0.21421011      -0.21819254       7.42784541       0.00000000 NULL
