12
Lattice="6.871640000000001 -3.7543298135443584e-16 -3.933537921310577e-16 2.505097508663965 6.398743842480774 -2.063436260414442e-15 2.5050975086639644 1.7094940797443121 6.166161914270883" Properties=species:S:1:pos:R:3:initial_magmoms:R:1:castep_labels:S:1 n_minim_iter=1 pbc="T T T"
P       10.39036330       6.05021146       6.05093423       0.00000000 NULL
P       10.72272618       6.96032886       4.21372505       0.00000000 NULL
P        9.42171397       7.82659896       5.58159188       0.00000000 NULL
P        7.16691184       6.27768450       3.74568315       0.00000000 NULL
P        7.53560523       4.74640225       5.04880281       0.00000000 NULL
P        8.45840412       4.78106953       3.22503710       0.00000000 NULL
P        4.87033505       2.09119278       2.94451990       0.00000000 NULL
P        4.93796712       3.29706901       1.22852143       0.00000000 NULL
P        3.72278978       3.84543929       2.84901407       0.00000000 NULL
P        6.88741638       2.28870496       3.13710763       0.00000000 NULL
P        5.89525802       5.08844400       1.36740252       0.00000000 NULL
P        4.64204854       4.51359005       4.53817246       0.00000000 NULL
12
Lattice="6.883712443794103 -0.0017785368564982428 -0.0013525437133036135 2.5078424497716103 6.410633854710675 -0.0013525437133040219 2.507842449771611 1.711367244583819 6.177981094395056" Properties=species:S:1:pos:R:3:initial_magmoms:R:1:castep_labels:S:1 n_minim_iter=2 pbc="T T T"
P       10.40591153       6.05836919       6.06057456       0.00000000 NULL
P       10.73907442       6.97062587       4.21901074       0.00000000 NULL
P        9.43497849       7.83896237       5.59010248       0.00000000 NULL
P        7.17694642       6.28780195       3.75097906       0.00000000 NULL
P        7.54653256       4.75290040       5.05713765       0.00000000 NULL
P        8.47148346       4.78768390       3.22907231       0.00000000 NULL
P        4.87770860       2.09332287       2.94939835       0.00000000 NULL
P        4.94556270       3.30201383       1.22927077       0.00000000 NULL
P        3.72746135       3.85176730       2.85357897       0.00000000 NULL
P        6.89856937       2.29100046       3.14188352       0.00000000 NULL
P        5.90418055       5.09692809       1.36833865       0.00000000 NULL
P        4.64825196       4.52074337       4.54609807       0.00000000 NULL
12
Lattice="7.135648284922405 -0.03787753989966463 -0.028805154236458456 2.5660724464698537 6.658391949533545 -0.028805154236459306 2.5660724464698546 1.7511037555479239 6.424067926775811" Properties=species:S:1:pos:R:3:initial_magmoms:R:1:castep_labels:S:1 n_minim_iter=3 pbc="T T T"
P       10.73196642       6.22982389       6.26252858       0.00000000 NULL
P       11.08181375       7.18659581       4.33027918       0.00000000 NULL
P        9.71349920       8.09799130       5.76849577       0.00000000 NULL
P        7.38760920       6.49954846       3.86215641       0.00000000 NULL
P        7.77577155       4.88938543       5.23148535       0.00000000 NULL
P        8.74545627       4.92660479       3.31401749       0.00000000 NULL
P        5.03227078       2.13828221       3.05155022       0.00000000 NULL
P        5.10475848       3.40567399       1.24530494       0.00000000 NULL
P        3.82567323       3.98427858       2.94918757       0.00000000 NULL
P        7.13216438       2.33986891       3.24205102       0.00000000 NULL
P        6.09138005       5.27449853       1.38866999       0.00000000 NULL
P        4.77891581       4.67062309       4.71178243       0.00000000 NULL
12
Lattice="7.194977570945093 -0.0048081921942009455 -0.0036565394193863207 2.618494856784049 6.701582652635911 -0.0036565394193879093 2.6184948567840496 1.7868771335374456 6.4589700053516355" Properties=species:S:1:pos:R:3:initial_magmoms:R:1:castep_labels:S:1 n_minim_iter=4 pbc="T T T"
P       10.87279693       6.32371106       6.33770669       0.00000000 NULL
P       11.22397110       7.28217997       4.40066909       0.00000000 NULL
P        9.85226580       8.19632784       5.84180020       0.00000000 NULL
P        7.49185379       6.57271763       3.91672532       0.00000000 NULL
P        7.88094380       4.96015940       5.28741628       0.00000000 NULL
P        8.85159303       4.99799739       3.36727641       0.00000000 NULL
P        5.09589518       2.17697057       3.08551735       0.00000000 NULL
P        5.16805773       3.44921896       1.27351236       0.00000000 NULL
P        3.88489376       4.02907120       2.98361385       0.00000000 NULL
P        7.21659031       2.39194413       3.28525628       0.00000000 NULL
P        6.17388264       5.33286430       1.42730962       0.00000000 NULL
P        4.85818526       4.72818913       4.75770372       0.00000000 NULL
12
Lattice="7.260516794279208 0.054207606992587656 0.04122386206567137 2.6973419917837878 6.741097000045773 0.041223862065670185 2.6973419917837886 1.8406829075724613 6.485057795008486" Properties=species:S:1:pos:R:3:initial_magmoms:R:1:castep_labels:S:1 n_minim_iter=5 pbc="T T T"
P       11.06288824       6.45588364       6.43610116       0.00000000 NULL
P       11.41444408       7.41175004       4.50175029       0.00000000 NULL
P       10.04464138       8.32556291       5.93965570       0.00000000 NULL
P        7.63616447       6.66617358       3.99235150       0.00000000 NULL
P        8.02466466       5.05886882       5.35727093       0.00000000 NULL
P        8.99122680       5.09767348       3.44373550       0.00000000 NULL
P        5.18191973       2.23459262       3.12854837       0.00000000 NULL
P        5.25236667       3.50859431       1.31754375       0.00000000 NULL
P        3.96991111       4.08632680       3.02906755       0.00000000 NULL
P        7.32542494       2.47118987       3.34405932       0.00000000 NULL
P        6.28603935       5.40583314       1.48796506       0.00000000 NULL
P        4.97165375       4.80421201       4.81181553       0.00000000 NULL
12
Lattice="7.351400258215593 0.15282394786834216 0.11621972812999194 2.8223038121108877 6.789774820101081 0.11621972812998994 2.822303812110888 1.9259576289373714 6.511930308627637" Properties=species:S:1:pos:R:3:initial_magmoms:R:1:castep_labels:S:1 n_minim_iter=6 pbc="T T T"
P       11.35166262       6.65850877       6.58554136       0.00000000 NULL
P       11.70422453       7.60841759       4.65708581       0.00000000 NULL
P       10.33859657       8.52167648       6.08767519       0.00000000 NULL
P        7.85657719       6.80525584       4.10859479       0.00000000 NULL
P        8.24392682       5.20973028       5.46024216       0.00000000 NULL
P        9.20109041       5.25097885       3.56160355       0.00000000 NULL
P        5.31658083       2.32426063       3.19318276       0.00000000 NULL
P        5.38176405       3.60254861       1.38668473       0.00000000 NULL
P        4.10249981       4.17337898       3.10113503       0.00000000 NULL
P        7.48711663       2.59639639       3.43549251       0.00000000 NULL
P        6.45817950       5.51208199       1.58419319       0.00000000 NULL
P        5.14718942       4.92035218       4.88849404       0.00000000 NULL
12
Lattice="7.3753951986913515 0.1672828855909701 0.1272154773866446 2.844515206236283 6.806847371741312 0.1272154773866447 2.8445152062362844 1.9411148220721328 6.5254446720051344" Properties=species:S:1:pos:R:3:initial_magmoms:R:1:castep_labels:S:1 n_minim_iter=7 pbc="T T T"
P       11.40838908       6.69253185       6.62134168       0.00000000 NULL
P       11.76549347       7.64534970       4.68030778       0.00000000 NULL
P       10.39095821       8.56697398       6.11706089       0.00000000 NULL
P        7.89565449       6.83579623       4.13134563       0.00000000 NULL
P        8.28618549       5.23515136       5.48359434       0.00000000 NULL
P        9.24377492       5.27964972       3.57986184       0.00000000 NULL
P        5.35308453       2.33631180       3.20958167       0.00000000 NULL
P        5.41278504       3.62960544       1.39391671       0.00000000 NULL
P        4.12702928       4.19708931       3.12527629       0.00000000 NULL
P        7.52044422       2.61576082       3.45837214       0.00000000 NULL
P        6.49567735       5.53319229       1.59674122       0.00000000 NULL
P        5.17737098       4.94880526       4.90548468       0.00000000 NULL
12
Lattice="7.364436878256128 0.18205774451578088 0.1384514787552259 2.8542783597698267 6.791256923508834 0.13845147875522437 2.854278359769827 1.9477772586070405 6.5074190862376025" Properties=species:S:1:pos:R:3:initial_magmoms:R:1:castep_labels:S:1 n_minim_iter=8 pbc="T T T"
P       11.41370606       6.70017170       6.62294968       0.00000000 NULL
P       11.77077533       7.64899179       4.68724034       0.00000000 NULL
P       10.40001063       8.56910219       6.11871848       0.00000000 NULL
P        7.90215535       6.83463157       4.13555079       0.00000000 NULL
P        8.29203911       5.23984099       5.48134855       0.00000000 NULL
P        9.24506033       5.28543272       3.58498099       0.00000000 NULL
P        5.35838114       2.34196022       3.20897814       0.00000000 NULL
P        5.41557957       3.63419944       1.39952107       0.00000000 NULL
P        4.13421990       4.19727525       3.12820605       0.00000000 NULL
P        7.51911046       2.62546235       3.46208102       0.00000000 NULL
P        6.50093273       5.52970249       1.60509925       0.00000000 NULL
P        5.18591864       4.95110263       4.89988879       0.00000000 NULL
12
Lattice="7.372784969507616 0.18605672556604946 0.1414926283717736 2.861045483479422 6.797572658911986 0.14149262837177282 2.861045483479423 1.9523951858048607 6.5126927806796875" Properties=species:S:1:pos:R:3:initial_magmoms:R:1:castep_labels:S:1 n_minim_iter=9 pbc="T T T"
P       11.43184245       6.71117872       6.63428486       0.00000000 NULL
P       11.79029678       7.66082593       4.69481896       0.00000000 NULL
P       10.41687189       8.58346520       6.12809777       0.00000000 NULL
P        7.91468364       6.84510497       4.14280049       0.00000000 NULL
P        8.30571731       5.24794018       5.48950442       0.00000000 NULL
P        9.25938023       5.29451558       3.59060686       0.00000000 NULL
P        5.36945066       2.34598216       3.21410785       0.00000000 NULL
P        5.42521866       3.64231336       1.40202636       0.00000000 NULL
P        4.14200051       4.20458062       3.13535573       0.00000000 NULL
P        7.53011543       2.63135143       3.46919903       0.00000000 NULL
P        6.51279695       5.53687596       1.60887262       0.00000000 NULL
P        5.19541437       4.96012611       4.90579342       0.00000000 NULL
12
Lattice="7.375898557820972 0.19288157769852765 0.14668279961409317 2.868535736590081 6.797983933945898 0.14668279961409234 2.8685357365900823 1.9575065809917436 6.51170249591174" Properties=species:S:1:pos:R:3:initial_magmoms:R:1:castep_labels:S:1 n_minim_iter=10 pbc="T T T"
P       11.44629621       6.72114294       6.64292828       0.00000000 NULL
P       11.80580088       7.67027805       4.70211181       0.00000000 NULL
P       10.43141959       8.59441973       6.13525796       0.00000000 NULL
P        7.92542746       6.85247520       4.14917925       0.00000000 NULL
P        8.31719145       5.25498591       5.49490261       0.00000000 NULL
P        9.27015998       5.30261746       3.59595431       0.00000000 NULL
P        5.37888585       2.35039906       3.21764105       0.00000000 NULL
P        5.43292759       3.64942782       1.40533878       0.00000000 NULL
P        4.14955310       4.20990245       3.14132664       0.00000000 NULL
P        7.53771480       2.63815186       3.47537969       0.00000000 NULL
P        6.52280525       5.54111873       1.61377463       0.00000000 NULL
P        5.20451719       4.96731033       4.90857235       0.00000000 NULL
12
Lattice="7.423832373222686 0.2883299748893034 0.21926950429412223 2.97489007490564 6.807822729945069 0.2192695042941209 2.9748900749056415 2.0300834412044773 6.501791342362311" Properties=species:S:1:pos:R:3:initial_magmoms:R:1:castep_labels:S:1 n_minim_iter=11 pbc="T T T"
P       11.65344420       6.86282121       6.76864596       0.00000000 NULL
P       12.02937482       7.80520640       4.80505351       0.00000000 NULL
P       10.63886481       8.75330234       6.23777993       0.00000000 NULL
P        8.07861251       6.96092815       4.24083361       0.00000000 NULL
P        8.48226104       5.35486756       5.57492704       0.00000000 NULL
P        9.42699388       5.41848622       3.67082606       0.00000000 NULL
P        5.51659578       2.41311195       3.26952049       0.00000000 NULL
P        5.54528521       3.75332732       1.45191201       0.00000000 NULL
P        4.25815316       4.28804707       3.22900705       0.00000000 NULL
P        7.64841932       2.73373571       3.56543054       0.00000000 NULL
P        6.66774791       5.60326000       1.68182613       0.00000000 NULL
P        5.33388110       5.07231915       4.95027421       0.00000000 NULL
