7
Lattice="2.4021600000000043 -3.5663922588653716e-14 -2.8765253742971197e-14 -0.5545950313232464 7.939182836547574 -9.989135581173872e-16 -0.19065488852668636 -2.527107689275609 8.313952699960767" Properties=species:S:1:pos:R:3:initial_magmoms:R:1:castep_labels:S:1 n_minim_iter=1 pbc="T T T"
P        1.29676178      -0.50192934       4.97545091       0.00000000 NULL
P        1.56740956       7.13281794       1.63809976       0.00000000 NULL
P        1.14509124       5.09576350       8.01234245       0.00000000 NULL
P        0.18434961       6.10837785       3.08176610       0.00000000 NULL
P        0.22311325       1.21340535       5.26373223       0.00000000 NULL
P       -0.13212105       1.84642051       7.12767719       0.00000000 NULL
P        1.43668501       0.53645223       3.18366191       0.00000000 NULL
7
Lattice="2.4070529556919804 -0.0003962736062619359 0.0004791617066526649 -0.5570343765493678 7.95095857151694 0.0016068861154762363 -0.18896795346810855 -2.5289968429384784 8.330796861154724" Properties=species:S:1:pos:R:3:initial_magmoms:R:1:castep_labels:S:1 n_minim_iter=2 pbc="T T T"
P        1.30054530      -0.50214542       4.98621016       0.00000000 NULL
P        1.56962054       7.14342030       1.64325612       0.00000000 NULL
P        1.14819964       5.10493057       8.03023806       0.00000000 NULL
P        0.18442923       6.11758903       3.08973785       0.00000000 NULL
P        0.22434068       1.21656155       5.27498199       0.00000000 NULL
P       -0.13125682       1.85074448       7.14330146       0.00000000 NULL
P        1.44016803       0.53800473       3.19055444       0.00000000 NULL
7
Lattice="2.5980163182511915 -0.016135659202159053 0.020324083423309623 -0.653141709957985 8.40402341424345 0.06508853421428515 -0.11888237871488759 -2.5995290117083627 8.98156761427253" Properties=species:S:1:pos:R:3:initial_magmoms:R:1:castep_labels:S:1 n_minim_iter=3 pbc="T T T"
P        1.45089136      -0.50968779       5.40318021       0.00000000 NULL
P        1.65552579       7.55137975       1.84464529       0.00000000 NULL
P        1.27269139       5.45930046       8.72375802       0.00000000 NULL
P        0.18866343       6.47213803       3.39946859       0.00000000 NULL
P        0.27425164       1.33958872       5.71038364       0.00000000 NULL
P       -0.09410682       2.01893416       7.74834442       0.00000000 NULL
P        1.57748866       0.59851066       3.45772368       0.00000000 NULL
7
Lattice="2.636387012637167 -0.026049407244041277 0.03977076571060718 -0.6947656046007884 8.535059905823365 0.09230618691847874 -0.044192788865374005 -2.606519501156457 9.095167643385016" Properties=species:S:1:pos:R:3:initial_magmoms:R:1:castep_labels:S:1 n_minim_iter=4 pbc="T T T"
P        1.51437275      -0.50582611       5.48923450       0.00000000 NULL
P        1.65919831       7.66942366       1.90712824       0.00000000 NULL
P        1.33600464       5.56969010       8.87638604       0.00000000 NULL
P        0.19579237       6.57685513       3.47179342       0.00000000 NULL
P        0.31062086       1.38493951       5.79966153       0.00000000 NULL
P       -0.04245312       2.07585509       7.86413857       0.00000000 NULL
P        1.62425112       0.61608475       3.51242051       0.00000000 NULL
7
Lattice="2.6332945234426117 -0.03183299518359842 0.05824604236445811 -0.7131664950334378 8.58389553443186 0.11170620288885359 0.02608060006588999 -2.596397626362386 9.088490736635611" Properties=species:S:1:pos:R:3:initial_magmoms:R:1:castep_labels:S:1 n_minim_iter=5 pbc="T T T"
P        1.55129535      -0.49724553       5.49958953       0.00000000 NULL
P        1.64773342       7.71543816       1.93873897       0.00000000 NULL
P        1.38544170       5.62092885       8.90730519       0.00000000 NULL
P        0.20870573       6.61872722       3.49092958       0.00000000 NULL
P        0.34375473       1.41226237       5.81174622       0.00000000 NULL
P        0.01216872       2.10592579       7.87093079       0.00000000 NULL
P        1.64570364       0.62464508       3.51870593       0.00000000 NULL
7
Lattice="2.613780736964744 -0.04635187266351967 0.11792096776144129 -0.7566464355334819 8.694541259747586 0.1799714695796938 0.2494402733720113 -2.5434823110259233 9.066254042811678" Properties=species:S:1:pos:R:3:initial_magmoms:R:1:castep_labels:S:1 n_minim_iter=6 pbc="T T T"
P        1.66308506      -0.45869245       5.53162792       0.00000000 NULL
P        1.61548465       7.82646877       2.04725183       0.00000000 NULL
P        1.55044726       5.76306950       9.01255879       0.00000000 NULL
P        0.26085825       6.72064702       3.55632767       0.00000000 NULL
P        0.45322188       1.49924484       5.85376067       0.00000000 NULL
P        0.19271991       2.19722191       7.89671893       0.00000000 NULL
P        1.70979301       0.65171474       3.53778415       0.00000000 NULL
7
Lattice="2.5959298475980277 -0.05078026511768763 0.16712707353364906 -0.7671610568818384 8.682289602381537 0.2544547406431319 0.42581970683347325 -2.4490096824287395 9.160887325522157" Properties=species:S:1:pos:R:3:initial_magmoms:R:1:castep_labels:S:1 n_minim_iter=7 pbc="T T T"
P        1.74602502      -0.39697834       5.62094771       0.00000000 NULL
P        1.59955382       7.83713721       2.17970935       0.00000000 NULL
P        1.70637092       5.82975697       9.22896852       0.00000000 NULL
P        0.33002002       6.72619395       3.66411874       0.00000000 NULL
P        0.54786049       1.58020968       5.97643864       0.00000000 NULL
P        0.35047895       2.26524525       8.03281484       0.00000000 NULL
P        1.76504320       0.67160466       3.58581829       0.00000000 NULL
7
Lattice="2.589445978335782 -0.059339594687916775 0.15430182956833086 -0.7939528445809539 8.609579430204409 0.23873582684170364 0.3909502798386566 -2.4441187881770547 9.089335277293507" Properties=species:S:1:pos:R:3:initial_magmoms:R:1:castep_labels:S:1 n_minim_iter=8 pbc="T T T"
P        1.70692629      -0.39722574       5.55801135       0.00000000 NULL
P        1.54373786       7.76664894       2.13602924       0.00000000 NULL
P        1.65020017       5.74976341       9.14645323       0.00000000 NULL
P        0.30552546       6.64477797       3.61622999       0.00000000 NULL
P        0.51036916       1.57738142       5.94175318       0.00000000 NULL
P        0.31141313       2.22574820       7.96515964       0.00000000 NULL
P        1.74767588       0.64576820       3.52989001       0.00000000 NULL
7
Lattice="2.6077217280244893 -0.06084819475661162 0.15620764507362445 -0.8031581813378948 8.642294053434103 0.2623307212829784 0.3976829261985923 -2.4291320574830353 9.192184262067402" Properties=species:S:1:pos:R:3:initial_magmoms:R:1:castep_labels:S:1 n_minim_iter=9 pbc="T T T"
P        1.71894326      -0.38288253       5.62192675       0.00000000 NULL
P        1.54845232       7.80046815       2.18058131       0.00000000 NULL
P        1.66354051       5.79264273       9.27048771       0.00000000 NULL
P        0.30869767       6.67389825       3.67491694       0.00000000 NULL
P        0.51385104       1.60286232       6.01797548       0.00000000 NULL
P        0.31677799       2.25456490       8.07016475       0.00000000 NULL
P        1.76205947       0.65584568       3.56985477       0.00000000 NULL
