4
Lattice="3.4147200000000013 -7.411131936868094e-17 0.0 -1.7002464678148643 3.041598320338023 0.0 0.0 0.0 8.47173" Properties=species:S:1:pos:R:3:initial_magmoms:R:1:castep_labels:S:1 n_minim_iter=1 pbc="T T T"
P        0.09906498       2.83026868       0.90061183       0.00000000 NULL
P        1.61540856       0.21132964       5.13647683       0.00000000 NULL
P        0.69789367       1.62557340       3.94989328       0.00000000 NULL
P        1.01657987       1.41602492       8.18575828       0.00000000 NULL
4
Lattice="3.415085500482132 0.0002456166398639735 0.0 -1.7002096781935994 3.041481149289553 0.0 0.0 0.0 8.47355217811081" Properties=species:S:1:pos:R:3:initial_magmoms:R:1:castep_labels:S:1 n_minim_iter=2 pbc="T T T"
P        0.09920705       2.83035857       0.90107322       0.00000000 NULL
P        1.61566878       0.21136820       5.13784931       0.00000000 NULL
P        0.69801525       1.62568733       3.95047518       0.00000000 NULL
P        1.01686058       1.41603944       8.18725127       0.00000000 NULL
4
Lattice="3.4507061509940167 0.024592652795060056 0.0 -1.6962591290824691 3.029411973575536 0.0 0.0 0.0 8.650249372487393" Properties=species:S:1:pos:R:3:initial_magmoms:R:1:castep_labels:S:1 n_minim_iter=3 pbc="T T T"
P        0.11344308       2.83859485       0.94628166       0.00000000 NULL
P        1.64100395       0.21540977       5.27140635       0.00000000 NULL
P        0.71009894       1.63652507       4.00643506       0.00000000 NULL
P        1.04434809       1.41747956       8.33155974       0.00000000 NULL
4
Lattice="3.4827698320668987 0.0878980299133496 0.0 -1.6558360875967713 2.95084580354313 0.0 0.0 0.0 8.631990227062554" Properties=species:S:1:pos:R:3:initial_magmoms:R:1:castep_labels:S:1 n_minim_iter=4 pbc="T T T"
P        0.16235407       2.80197406       0.96515662       0.00000000 NULL
P        1.66457968       0.23676977       5.28115173       0.00000000 NULL
P        0.74245044       1.62779688       3.97710579       0.00000000 NULL
P        1.08448331       1.41094695       8.29310090       0.00000000 NULL
4
Lattice="3.5257547923420587 0.17361590772267393 0.0 -1.6008874164639182 2.843713735437894 0.0 0.0 0.0 8.522400870250749" Properties=species:S:1:pos:R:3:initial_magmoms:R:1:castep_labels:S:1 n_minim_iter=5 pbc="T T T"
P        0.22851064       2.75547750       0.99674385       0.00000000 NULL
P        1.69635674       0.26185214       5.25794429       0.00000000 NULL
P        0.78525971       1.61766359       3.88277296       0.00000000 NULL
P        1.13960767       1.39966605       8.14397340       0.00000000 NULL
4
Lattice="3.4385476833401105 0.11644592648280024 0.0 -1.6083886288221918 2.8636500171192716 0.0 0.0 0.0 8.25260401141407" Properties=species:S:1:pos:R:3:initial_magmoms:R:1:castep_labels:S:1 n_minim_iter=6 pbc="T T T"
P        0.17990442       2.74853011       0.97746038       0.00000000 NULL
P        1.65025464       0.23156583       5.10376239       0.00000000 NULL
P        0.74009163       1.60230149       3.74758373       0.00000000 NULL
P        1.09006743       1.37779445       7.87388573       0.00000000 NULL
4
Lattice="3.421685785080261 0.08741049794836485 0.0 -1.6258555741950702 2.8842751484272053 0.0 0.0 0.0 8.192844305191091" Properties=species:S:1:pos:R:3:initial_magmoms:R:1:castep_labels:S:1 n_minim_iter=7 pbc="T T T"
P        0.15537440       2.75482670       0.98270907       0.00000000 NULL
P        1.64045582       0.21685895       5.07913122       0.00000000 NULL
P        0.72258530       1.59944092       3.70811951       0.00000000 NULL
P        1.07324491       1.37224472       7.80454166       0.00000000 NULL
4
Lattice="3.4103785026315765 0.07851204187362165 0.0 -1.6281516224820671 2.8786166593847917 0.0 0.0 0.0 8.094495286049856" Properties=species:S:1:pos:R:3:initial_magmoms:R:1:castep_labels:S:1 n_minim_iter=8 pbc="T T T"
P        0.14762627       2.74592269       0.97693131       0.00000000 NULL
P        1.63460062       0.21120601       5.02417895       0.00000000 NULL
P        0.71626317       1.59175225       3.65758735       0.00000000 NULL
P        1.06596372       1.36537645       7.70483500       0.00000000 NULL
4
Lattice="3.403184940509263 0.06168390402741271 0.0 -1.6395591777773701 2.884018339232604 0.0 0.0 0.0 8.003324612650982" Properties=species:S:1:pos:R:3:initial_magmoms:R:1:castep_labels:S:1 n_minim_iter=9 pbc="T T T"
P        0.13307395       2.74363447       0.97431160       0.00000000 NULL
P        1.63055182       0.20206777       4.97597390       0.00000000 NULL
P        0.70714452       1.58604559       3.60800712       0.00000000 NULL
P        1.05648125       1.35965665       7.60966942       0.00000000 NULL
