10
Lattice="4.216709999999997 -3.7306740872255315e-16 -4.2153966022152856e-16 2.0534492978811496 5.522558869032674 2.4554704974831625e-16 1.4387032250756204 0.7695989558932521 9.330302816594166" Properties=species:S:1:pos:R:3:initial_magmoms:R:1:castep_labels:S:1 n_minim_iter=1 pbc="T T T"
P        4.29917667       3.47918306       7.08602630       0.00000000 NULL
P        6.31069303       4.30697392       9.26391678       0.00000000 NULL
P        6.36942551       5.49902484       3.67447198       0.00000000 NULL
P        2.12016215       2.67376505       1.28844764       0.00000000 NULL
P        5.57829402       5.32575007       0.67707488       0.00000000 NULL
P        5.75139433       2.22494003       6.39027775       0.00000000 NULL
P        4.35635543       5.45536691       4.00672873       0.00000000 NULL
P        4.55310436       3.37321427       4.12413193       0.00000000 NULL
P        3.33774256       4.97683735       0.55788213       0.00000000 NULL
P        2.51683939       3.52498955       4.04740232       0.00000000 NULL
10
Lattice="4.224884174678394 -0.00014865189936856942 -0.0004928154245559591 2.057235262386378 5.525868353027494 0.0016247188477224264 1.440374597302257 0.7731699265164949 9.328977056628682" Properties=species:S:1:pos:R:3:initial_magmoms:R:1:castep_labels:S:1 n_minim_iter=2 pbc="T T T"
P        4.30648931       3.48359374       7.08560541       0.00000000 NULL
P        6.32161733       4.31229553       9.26311877       0.00000000 NULL
P        6.38136039       5.50362997       3.67491702       0.00000000 NULL
P        2.12406819       2.67583680       1.28888521       0.00000000 NULL
P        5.58864966       5.32927624       0.67821136       0.00000000 NULL
P        5.76181544       2.22825392       6.38932152       0.00000000 NULL
P        4.36399006       5.46000614       4.00752207       0.00000000 NULL
P        4.56143781       3.37633307       4.12418577       0.00000000 NULL
P        3.34419876       4.97986708       0.55910782       0.00000000 NULL
P        2.52092330       3.52825183       4.04774698       0.00000000 NULL
10
Lattice="4.387368769828904 -0.0026340946824033092 -0.010359022249646965 2.1331067057019926 5.58978444808072 0.03511136603148801 1.473528316568732 0.8460903492307329 9.300176435907144" Properties=species:S:1:pos:R:3:initial_magmoms:R:1:castep_labels:S:1 n_minim_iter=3 pbc="T T T"
P        4.45212318       3.57197095       7.07592698       0.00000000 NULL
P        6.53902329       4.41910285       9.24551221       0.00000000 NULL
P        6.61934140       5.59467858       3.68385969       0.00000000 NULL
P        2.20201408       2.71661154       1.29776624       0.00000000 NULL
P        5.79489632       5.39821002       0.70176396       0.00000000 NULL
P        5.96915229       2.29539216       6.36891425       0.00000000 NULL
P        4.51617315       5.55154201       4.02335082       0.00000000 NULL
P        4.72746626       3.43841265       4.12477905       0.00000000 NULL
P        3.47331199       5.03861185       0.58435841       0.00000000 NULL
P        2.60222419       3.59287718       4.05421901       0.00000000 NULL
10
Lattice="4.433506188431244 0.009020128214080445 -0.012804931016430382 2.170838013250698 5.576024436396207 0.08270233319469777 1.485984961976381 0.9297750177679385 9.221468471549413" Properties=species:S:1:pos:R:3:initial_magmoms:R:1:castep_labels:S:1 n_minim_iter=4 pbc="T T T"
P        4.50517300       3.63395364       7.03857805       0.00000000 NULL
P        6.61345546       4.49996845       9.19463767       0.00000000 NULL
P        6.70517366       5.62877513       3.69365029       0.00000000 NULL
P        2.23209366       2.72690944       1.30772029       0.00000000 NULL
P        5.86716771       5.40409996       0.74108840       0.00000000 NULL
P        6.03493730       2.36126246       6.32600396       0.00000000 NULL
P        4.57490423       5.58056267       4.03399026       0.00000000 NULL
P        4.78522362       3.47296547       4.11599202       0.00000000 NULL
P        3.52738233       5.03278844       0.62195020       0.00000000 NULL
P        2.63372439       3.62049334       4.04824836       0.00000000 NULL
10
Lattice="4.52095104353639 0.03888738117205474 -0.01111308312349612 2.2525384951514407 5.529477054227557 0.198087817378393 1.5250150244916136 1.1250024855519392 9.013013310798433" Properties=species:S:1:pos:R:3:initial_magmoms:R:1:castep_labels:S:1 n_minim_iter=5 pbc="T T T"
P        4.62375296       3.77235881       6.93872953       0.00000000 NULL
P        6.77590860       4.68271873       9.05996460       0.00000000 NULL
P        6.88427536       5.69817912       3.71808549       0.00000000 NULL
P        2.29648588       2.74521343       1.33159564       0.00000000 NULL
P        6.01427242       5.40494114       0.84132053       0.00000000 NULL
P        6.17275939       2.51339121       6.21706761       0.00000000 NULL
P        4.70266088       5.63675624       4.05553456       0.00000000 NULL
P        4.90659124       3.54691740       4.09166935       0.00000000 NULL
P        3.64092284       5.00677877       0.71450534       0.00000000 NULL
P        2.70457822       3.67577647       4.02720986       0.00000000 NULL
10
Lattice="4.708176935731182 0.0849861469804277 0.01024217382422538 2.404088406062803 5.462306530513904 0.3984958397703104 1.6445610855204285 1.4492591904319836 8.567777796170335" Properties=species:S:1:pos:R:3:initial_magmoms:R:1:castep_labels:S:1 n_minim_iter=6 pbc="T T T"
P        4.89440322       4.00667061       6.71262943       0.00000000 NULL
P        7.14479026       4.99203648       8.75547882       0.00000000 NULL
P        7.25635149       5.82871825       3.74727681       0.00000000 NULL
P        2.43193291       2.78264033       1.36740762       0.00000000 NULL
P        6.31322648       5.41015838       1.02356237       0.00000000 NULL
P        6.48312059       2.76623521       5.98739680       0.00000000 NULL
P        4.97485670       5.74522540       4.06746453       0.00000000 NULL
P        5.16541609       3.66672301       4.02510964       0.00000000 NULL
P        3.85929983       4.96810602       0.87522918       0.00000000 NULL
P        2.86014121       3.76248290       3.95730499       0.00000000 NULL
10
Lattice="4.835878400248155 0.0743764953055487 0.04764384405347202 2.4523810457502213 5.387653884739792 0.5459025501326905 1.7689538564440506 1.6542259824267078 8.070988875794283" Properties=species:S:1:pos:R:3:initial_magmoms:R:1:castep_labels:S:1 n_minim_iter=7 pbc="T T T"
P        5.08890095       4.11891592       6.42906846       0.00000000 NULL
P        7.40131712       5.13688361       8.37653820       0.00000000 NULL
P        7.46960973       5.86614974       3.72849676       0.00000000 NULL
P        2.51689441       2.79205442       1.37769677       0.00000000 NULL
P        6.47031436       5.34447708       1.15745014       0.00000000 NULL
P        6.70594507       2.87792948       5.72412261       0.00000000 NULL
P        5.13755408       5.78783064       4.02092014       0.00000000 NULL
P        5.31890621       3.68090777       3.91628525       0.00000000 NULL
P        3.95434196       4.89130668       0.98547106       0.00000000 NULL
P        2.95035269       3.76683526       3.83426643       0.00000000 NULL
10
Lattice="4.887645024752114 0.00010922080124456718 0.09906457004634703 2.380323622604853 5.214885476545923 0.6399731306276933 1.8868400134888108 1.7264754833506146 7.428220609323797" Properties=species:S:1:pos:R:3:initial_magmoms:R:1:castep_labels:S:1 n_minim_iter=8 pbc="T T T"
P        5.17540062       4.05077251       6.01071541       0.00000000 NULL
P        7.50774753       5.04162681       7.83289856       0.00000000 NULL
P        7.48674063       5.70253096       3.61921965       0.00000000 NULL
P        2.54160710       2.72838472       1.35093769       0.00000000 NULL
P        6.46041389       5.12099763       1.23686928       0.00000000 NULL
P        6.81860683       2.79752840       5.36220058       0.00000000 NULL
P        5.16795693       5.65749012       3.87461805       0.00000000 NULL
P        5.33594047       3.53964098       3.71908368       0.00000000 NULL
P        3.90128655       4.68903475       1.04083134       0.00000000 NULL
P        2.95534634       3.64306344       3.61230733       0.00000000 NULL
10
Lattice="5.081460637471732 -0.00698012959569773 0.08476610677222361 2.465422948607163 5.401489249478977 0.591909624932806 1.9200360829995762 1.6811032617870836 7.4833440983706" Properties=species:S:1:pos:R:3:initial_magmoms:R:1:castep_labels:S:1 n_minim_iter=9 pbc="T T T"
P        5.34271334       4.11509800       6.01589352       0.00000000 NULL
P        7.75442044       5.11021305       7.83989707       0.00000000 NULL
P        7.75308683       5.87161791       3.58476688       0.00000000 NULL
P        2.64457022       2.81440081       1.33623659       0.00000000 NULL
P        6.71109902       5.29798853       1.18149716       0.00000000 NULL
P        7.05724026       2.80893982       5.37555900       0.00000000 NULL
P        5.35929901       5.81908847       3.85513111       0.00000000 NULL
P        5.50708331       3.60265775       3.70762340       0.00000000 NULL
P        4.03848363       4.84058144       0.99359189       0.00000000 NULL
P        3.05221308       3.71399378       3.60195001       0.00000000 NULL
10
Lattice="4.9870970738103955 0.006552321630163379 0.07852998541986854 2.4371931118365997 5.2807557340989275 0.5709452228504382 1.8765112725066584 1.6376887906118434 7.341741931112824" Properties=species:S:1:pos:R:3:initial_magmoms:R:1:castep_labels:S:1 n_minim_iter=10 pbc="T T T"
P        5.24887818       4.02557192       5.89191315       0.00000000 NULL
P        7.61595182       5.00407327       7.68173237       0.00000000 NULL
P        7.61899051       5.75003573       3.50316742       0.00000000 NULL
P        2.60586201       2.75731821       1.30664647       0.00000000 NULL
P        6.60576475       5.19119562       1.14493846       0.00000000 NULL
P        6.92427395       2.75431284       5.26696756       0.00000000 NULL
P        5.27970487       5.69175362       3.77302037       0.00000000 NULL
P        5.40441523       3.52839300       3.63082671       0.00000000 NULL
P        3.97398780       4.73217052       0.96316997       0.00000000 NULL
P        3.00128355       3.62974308       3.52673073       0.00000000 NULL
10
Lattice="4.989548779842428 0.008148571213735106 0.07578989087415756 2.4404776242467565 5.276872377978244 0.5557114698700294 1.8715761068278525 1.6141010648582303 7.305371381868579" Properties=species:S:1:pos:R:3:initial_magmoms:R:1:castep_labels:S:1 n_minim_iter=11 pbc="T T T"
P        5.24837689       4.00762310       5.85306869       0.00000000 NULL
P        7.61522733       4.98061988       7.63291588       0.00000000 NULL
P        7.61871374       5.74058293       3.47216533       0.00000000 NULL
P        2.61172615       2.75494462       1.29531956       0.00000000 NULL
P        6.61394639       5.18966675       1.12463576       0.00000000 NULL
P        6.92412826       2.73600071       5.23596520       0.00000000 NULL
P        5.28802018       5.68016309       3.74415271       0.00000000 NULL
P        5.39881215       3.51453724       3.60494514       0.00000000 NULL
P        3.97347608       4.72452107       0.94534344       0.00000000 NULL
P        3.00170398       3.61506682       3.50082582       0.00000000 NULL
10
Lattice="5.00368699188087 0.010171175699023115 0.07212572180276285 2.4500116102032012 5.276760954650322 0.5310250566720596 1.868661388611339 1.5759456256048043 7.251966147280825" Properties=species:S:1:pos:R:3:initial_magmoms:R:1:castep_labels:S:1 n_minim_iter=12 pbc="T T T"
P        5.25862737       3.98194985       5.79431399       0.00000000 NULL
P        7.63043897       4.94622352       7.55973119       0.00000000 NULL
P        7.63218649       5.73094577       3.42478705       0.00000000 NULL
P        2.62759399       2.75428768       1.27831178       0.00000000 NULL
P        6.64124110       5.19371423       1.09266177       0.00000000 NULL
P        6.93897921       2.70693345       5.19056402       0.00000000 NULL
P        5.31383340       5.66731396       3.70062395       0.00000000 NULL
P        5.39893049       3.49449895       3.56587257       0.00000000 NULL
P        3.97885294       4.71666789       0.91675185       0.00000000 NULL
P        3.00883636       3.59425105       3.46131425       0.00000000 NULL
10
Lattice="5.039282923470606 0.014795588063845842 0.0681055261600737 2.4734026022917748 5.266479717323085 0.4831746769423075 1.8727549311544864 1.4982417642676698 7.143860010405683" Properties=species:S:1:pos:R:3:initial_magmoms:R:1:castep_labels:S:1 n_minim_iter=13 pbc="T T T"
P        5.29254137       3.92577556       5.67657096       0.00000000 NULL
P        7.68117193       4.87099144       7.41566815       0.00000000 NULL
P        7.66749702       5.70162005       3.33362585       0.00000000 NULL
P        2.66909095       2.74964452       1.24704227       0.00000000 NULL
P        6.71205741       5.19640052       1.03228559       0.00000000 NULL
P        6.98488798       2.64267123       5.10362210       0.00000000 NULL
P        5.38464689       5.63222836       3.61775299       0.00000000 NULL
P        5.40249260       3.44761539       3.48985111       0.00000000 NULL
P        3.99040476       4.68917846       0.86068601       0.00000000 NULL
P        3.03182245       3.54586056       3.38318855       0.00000000 NULL
10
Lattice="5.102388295006652 0.015982467683263925 0.07295019037610857 2.505688031795324 5.264178469459393 0.47473543485804065 1.9052223066782192 1.4800015458373523 7.143968663148816" Properties=species:S:1:pos:R:3:initial_magmoms:R:1:castep_labels:S:1 n_minim_iter=14 pbc="T T T"
P        5.36672675       3.91599587       5.66759558       0.00000000 NULL
P        7.79170011       4.85614119       7.41301398       0.00000000 NULL
P        7.74717830       5.69607759       3.32994586       0.00000000 NULL
P        2.72151046       2.75294291       1.24996274       0.00000000 NULL
P        6.81602492       5.20734404       1.02607499       0.00000000 NULL
P        7.08085820       2.62067330       5.11017559       0.00000000 NULL
P        5.48455081       5.62631654       3.62119688       0.00000000 NULL
P        5.44479078       3.43201474       3.48715222       0.00000000 NULL
P        4.02078658       4.67381004       0.84894150       0.00000000 NULL
P        3.07756187       3.53170156       3.37812741       0.00000000 NULL
10
Lattice="5.089415569427066 0.01803184320681472 0.07460869340703633 2.5020546215633077 5.231630666809531 0.47250776807940065 1.9048399305211139 1.4708978367208156 7.106414951681058" Properties=species:S:1:pos:R:3:initial_magmoms:R:1:castep_labels:S:1 n_minim_iter=15 pbc="T T T"
P        5.35922509       3.89404207       5.63612035       0.00000000 NULL
P        7.78111542       4.83019405       7.37615780       0.00000000 NULL
P        7.72366198       5.66272154       3.31414546       0.00000000 NULL
P        2.72173493       2.73897498       1.24593241       0.00000000 NULL
P        6.80818885       5.18082706       1.02189695       0.00000000 NULL
P        7.06662255       2.60409783       5.08655203       0.00000000 NULL
P        5.48470393       5.59285442       3.60658555       0.00000000 NULL
P        5.42401855       3.41054698       3.47011382       0.00000000 NULL
P        4.00488748       4.64088724       0.84307194       0.00000000 NULL
P        3.07451354       3.50916200       3.36081944       0.00000000 NULL
10
Lattice="5.107764626516943 0.018268332829977214 0.0759179506675934 2.5112999541244263 5.244170933332881 0.4729384188826711 1.9140406145817144 1.472360425018299 7.116270676896346" Properties=species:S:1:pos:R:3:initial_magmoms:R:1:castep_labels:S:1 n_minim_iter=16 pbc="T T T"
P        5.38094020       3.90279373       5.64285553       0.00000000 NULL
P        7.81313122       4.84089940       7.38721790       0.00000000 NULL
P        7.74803160       5.67612342       3.31949440       0.00000000 NULL
P        2.73515292       2.74641823       1.24893112       0.00000000 NULL
P        6.83706466       5.19601397       1.02371696       0.00000000 NULL
P        7.09393594       2.60737249       5.09552825       0.00000000 NULL
P        5.51097057       5.60596259       3.61402047       0.00000000 NULL
P        5.43843422       3.41636568       3.47513608       0.00000000 NULL
P        4.01498344       4.64933845       0.84298142       0.00000000 NULL
P        3.08774297       3.51589943       3.36560581       0.00000000 NULL
10
Lattice="5.115376971564971 0.0186253316171043 0.07702490073238032 2.5154745621511103 5.241542809268622 0.4725228911745748 1.919152379576731 1.4704789911873644 7.111374092038125" Properties=species:S:1:pos:R:3:initial_magmoms:R:1:castep_labels:S:1 n_minim_iter=17 pbc="T T T"
P        5.39168699       3.90098169       5.63775774       0.00000000 NULL
P        7.82923232       4.83898405       7.38318437       0.00000000 NULL
P        7.75594247       5.67327315       3.31792655       0.00000000 NULL
P        2.74298878       2.74626287       1.24946277       0.00000000 NULL
P        6.85193216       5.19627411       1.02346103       0.00000000 NULL
P        7.10619223       2.60401038       5.09389359       0.00000000 NULL
P        5.52610697       5.60303703       3.61414897       0.00000000 NULL
P        5.44122387       3.41310036       3.47313418       0.00000000 NULL
P        4.01635597       4.64420140       0.84113420       0.00000000 NULL
P        3.09456366       3.51306049       3.36353294       0.00000000 NULL
10
Lattice="5.214185522691107 0.020642639894432966 0.08864536966923525 2.566234290387852 5.2254619372982125 0.4686368023343098 1.978945724048096 1.4526632237563644 7.069553636945323" Properties=species:S:1:pos:R:3:initial_magmoms:R:1:castep_labels:S:1 n_minim_iter=18 pbc="T T T"
P        5.52402695       3.88937875       5.59019643       0.00000000 NULL
P        8.02791616       4.82839700       7.35125522       0.00000000 NULL
P        7.86052189       5.65324228       3.30503362       0.00000000 NULL
P        2.83699322       2.75031556       1.25740753       0.00000000 NULL
P        7.03498625       5.21096098       1.02171216       0.00000000 NULL
P        7.25942552       2.57101743       5.08388208       0.00000000 NULL
P        5.70673830       5.58248576       3.62235556       0.00000000 NULL
P        5.48225663       3.38378324       3.45607014       0.00000000 NULL
P        4.03808128       4.59764089       0.82092171       0.00000000 NULL
P        3.17712114       3.49033520       3.34685655       0.00000000 NULL
10
Lattice="5.300231933960239 -0.02056027151317959 0.04358988293269846 2.5541742812768877 5.275841181806544 0.43364407533132876 1.901089811974247 1.4263713299430532 7.100913286494412" Properties=species:S:1:pos:R:3:initial_magmoms:R:1:castep_labels:S:1 n_minim_iter=19 pbc="T T T"
P        5.53294686       3.88611263       5.54597371       0.00000000 NULL
P        8.06296189       4.82711959       7.33180383       0.00000000 NULL
P        7.86280727       5.64536337       3.23443210       0.00000000 NULL
P        2.86650587       2.75885311       1.24477142       0.00000000 NULL
P        7.12568693       5.25693912       0.94573813       0.00000000 NULL
P        7.28012557       2.51671918       5.05757978       0.00000000 NULL
P        5.71977571       5.58253975       3.61619223       0.00000000 NULL
P        5.42526769       3.36476844       3.41930524       0.00000000 NULL
P        4.00282461       4.59603933       0.75085861       0.00000000 NULL
P        3.15298982       3.50527689       3.34358105       0.00000000 NULL
10
Lattice="5.2323034460172195 -0.025386402605948113 0.039717142210762786 2.514773824773548 5.220363744451868 0.44311378082098013 1.8684631993321787 1.4365063731806642 6.98753487044516" Properties=species:S:1:pos:R:3:initial_magmoms:R:1:castep_labels:S:1 n_minim_iter=20 pbc="T T T"
P        5.45808707       3.86244962       5.46175509       0.00000000 NULL
P        7.95344588       4.80001707       7.22492160       0.00000000 NULL
P        7.74936821       5.58782799       3.19384048       0.00000000 NULL
P        2.82588462       2.72981935       1.23292162       0.00000000 NULL
P        7.03124998       5.20284966       0.94373767       0.00000000 NULL
P        7.17852963       2.50350050       4.97835220       0.00000000 NULL
P        5.63719881       5.52957928       3.57636060       0.00000000 NULL
P        5.34468650       3.33866913       3.37133614       0.00000000 NULL
P        3.94068126       4.54510901       0.74889336       0.00000000 NULL
P        3.10022222       3.47984706       3.29980555       0.00000000 NULL
10
Lattice="5.268924903228449 -0.02558209664121253 0.03708299238283918 2.532351408664243 5.26460732971877 0.44517739716558474 1.875093815882226 1.4482721643099405 7.030604436299024" Properties=species:S:1:pos:R:3:initial_magmoms:R:1:castep_labels:S:1 n_minim_iter=21 pbc="T T T"
P        5.49354572       3.89597534       5.49291616       0.00000000 NULL
P        8.00482038       4.84110966       7.26717272       0.00000000 NULL
P        7.80115748       5.63425285       3.20966113       0.00000000 NULL
P        2.84461046       2.75059424       1.23963963       0.00000000 NULL
P        7.08130008       5.24993297       0.94634755       0.00000000 NULL
P        7.22431319       2.52420190       5.00622678       0.00000000 NULL
P        5.67273036       5.57540984       3.59859960       0.00000000 NULL
P        5.37759549       3.36604912       3.38921715       0.00000000 NULL
P        3.96754132       4.58320073       0.75037358       0.00000000 NULL
P        3.11665490       3.50965093       3.31998770       0.00000000 NULL
10
Lattice="5.267264209020882 -0.028577046152505663 0.03400697225346974 2.527620247085558 5.267439131494316 0.44567705730971346 1.867174287290949 1.4512231414801355 7.02537026266423" Properties=species:S:1:pos:R:3:initial_magmoms:R:1:castep_labels:S:1 n_minim_iter=22 pbc="T T T"
P        5.48667103       3.89900290       5.48674854       0.00000000 NULL
P        7.99511368       4.84459757       7.26059215       0.00000000 NULL
P        7.79120251       5.63416503       3.20457011       0.00000000 NULL
P        2.84091408       2.75001919       1.23863445       0.00000000 NULL
P        7.07620114       5.25260188       0.94369152       0.00000000 NULL
P        7.21556213       2.52421676       4.99979967       0.00000000 NULL
P        5.66379598       5.57667579       3.59726129       0.00000000 NULL
P        5.36882945       3.36702729       3.38489973       0.00000000 NULL
P        3.96107396       4.58398379       0.74803003       0.00000000 NULL
P        3.10810604       3.51258834       3.31805194       0.00000000 NULL
10
Lattice="5.267209711999446 -0.03132739978114357 0.031028310726395784 2.5239916132228513 5.270776231767294 0.4457898907780597 1.860062845347548 1.4535777488001125 7.02247567079622" Properties=species:S:1:pos:R:3:initial_magmoms:R:1:castep_labels:S:1 n_minim_iter=23 pbc="T T T"
P        5.48166754       3.90195263       5.48225747       0.00000000 NULL
P        7.98809671       4.84795062       7.25609809       0.00000000 NULL
P        7.78411500       5.63463366       3.20015772       0.00000000 NULL
P        2.83826829       2.74974218       1.23777310       0.00000000 NULL
P        7.07350291       5.25580944       0.94090361       0.00000000 NULL
P        7.20927678       2.52420439       4.99496569       0.00000000 NULL
P        5.65701119       5.57834589       3.59652861       0.00000000 NULL
P        5.36207832       3.36814085       3.38149658       0.00000000 NULL
P        3.95621221       4.58530341       0.74560487       0.00000000 NULL
P        3.10097462       3.51554086       3.31689355       0.00000000 NULL
10
Lattice="5.267656124747747 -0.0406404947843575 0.020704798434865238 2.5120117925893317 5.2810116425104825 0.44536135766985624 1.835672600692183 1.4602282060984506 7.01366648096511" Properties=species:S:1:pos:R:3:initial_magmoms:R:1:castep_labels:S:1 n_minim_iter=24 pbc="T T T"
P        5.46509954       3.91044719       5.46725755       0.00000000 NULL
P        7.96478094       4.85736817       7.24117503       0.00000000 NULL
P        7.76079883       5.63458343       3.18457804       0.00000000 NULL
P        2.82959915       2.74801836       1.23452428       0.00000000 NULL
P        7.06525805       5.26561125       0.93050782       0.00000000 NULL
P        7.18843534       2.52298511       4.97880419       0.00000000 NULL
P        5.63453396       5.58233539       3.59366196       0.00000000 NULL
P        5.33951299       3.37080375       3.36985257       0.00000000 NULL
P        3.94008716       4.58873043       0.73665123       0.00000000 NULL
P        3.07701946       3.52439646       3.31290941       0.00000000 NULL
10
Lattice="5.268801778238366 -0.04736966790084257 0.012698793626263541 2.5037566094442365 5.286684501751222 0.44357149484211944 1.8171204691849072 1.4627424331982966 7.008248818520662" Properties=species:S:1:pos:R:3:initial_magmoms:R:1:castep_labels:S:1 n_minim_iter=25 pbc="T T T"
P        5.45375987       3.91426284       5.45598349       0.00000000 NULL
P        7.94840565       4.86113038       7.23017389       0.00000000 NULL
P        7.74439385       5.63158737       3.17157201       0.00000000 NULL
P        2.82365679       2.74519160       1.23146006       0.00000000 NULL
P        7.06080855       5.27137034       0.92105692       0.00000000 NULL
P        7.17350225       2.52017190       4.96678719       0.00000000 NULL
P        5.61880746       5.58221095       3.59080095       0.00000000 NULL
P        5.32293304       3.37086531       3.36068584       0.00000000 NULL
P        3.92842667       4.58933164       0.72848451       0.00000000 NULL
P        3.05947094       3.52892252       3.30957529       0.00000000 NULL
10
Lattice="5.276959343508219 -0.07780466044167357 -0.022568778913829128 2.4678689407856043 5.3167495468727415 0.4359834395138699 1.7363125515370668 1.4748097433041292 6.982368553382446" Properties=species:S:1:pos:R:3:initial_magmoms:R:1:castep_labels:S:1 n_minim_iter=26 pbc="T T T"
P        5.40958029       3.93549748       5.40437272       0.00000000 NULL
P        7.88205529       4.88272330       7.18097068       0.00000000 NULL
P        7.67443850       5.62128751       3.11291825       0.00000000 NULL
P        2.79885096       2.73296449       1.21783533       0.00000000 NULL
P        7.04641770       5.30395477       0.87925334       0.00000000 NULL
P        7.11122422       2.50989739       4.91243545       0.00000000 NULL
P        5.55234129       5.58494726       3.57964634       0.00000000 NULL
P        5.24995409       3.37376187       3.31925661       0.00000000 NULL
P        3.87631566       4.59484969       0.69133222       0.00000000 NULL
P        2.98175771       3.55228260       3.29455877       0.00000000 NULL
10
Lattice="5.293365698293714 -0.07606542202694697 -0.04206458155655416 2.478136344578536 5.370590071322903 0.4080022448984335 1.6990893726370417 1.4515542646303883 6.972326977190167" Properties=species:S:1:pos:R:3:initial_magmoms:R:1:castep_labels:S:1 n_minim_iter=27 pbc="T T T"
P        5.44733108       3.96921924       5.35948607       0.00000000 NULL
P        7.90717147       4.92167209       7.15502294       0.00000000 NULL
P        7.66492820       5.63923765       3.05043201       0.00000000 NULL
P        2.80346711       2.72521904       1.20148380       0.00000000 NULL
P        7.10150188       5.40029076       0.82923617       0.00000000 NULL
P        7.09826968       2.51949748       4.87696930       0.00000000 NULL
P        5.55785966       5.59802361       3.57614061       0.00000000 NULL
P        5.20986382       3.39208335       3.28125797       0.00000000 NULL
P        3.85311205       4.62163458       0.63454724       0.00000000 NULL
P        2.94201326       3.57818347       3.27875478       0.00000000 NULL
