13
Lattice="4.100469999999999 -7.434975106678695e-17 -1.7504536166160313e-15 -0.5628237848612643 8.696496489006043 4.972573264822171e-15 -1.7978494890806977 -2.683672543309097 8.278478765558388" Properties=species:S:1:pos:R:3:initial_magmoms:R:1:castep_labels:S:1 n_minim_iter=1 pbc="T T T"
P        0.29238956       4.53067006       0.55748932       0.00000000 NULL
P        0.67567798       4.92714088       2.49405150       0.00000000 NULL
P        0.05868998       8.30334898       1.08656441       0.00000000 NULL
P        1.52094980      -0.30871904       5.38034312       0.00000000 NULL
P        2.54158375       4.79839143       5.12628241       0.00000000 NULL
P        0.34480383      -1.83447929       6.04858773       0.00000000 NULL
P        0.93871584       2.38032958       7.42928318       0.00000000 NULL
P        2.64289746       0.22667905       3.21577590       0.00000000 NULL
P        0.95739488       4.58180994       7.28686188       0.00000000 NULL
P       -1.14190378      -0.63862625       6.79789850       0.00000000 NULL
P        0.93119001       6.47863488       3.73081898       0.00000000 NULL
P       -0.69711791       3.78602439       8.17130889       0.00000000 NULL
P        1.10936440       1.60029055       1.13420788       0.00000000 NULL
13
Lattice="4.104145603220619 0.00043887273933010596 -0.0007378497495963612 -0.5623975073076101 8.699580703030406 0.0026971000983719265 -1.801237941033034 -2.682364271503575 8.279661758259659" Properties=species:S:1:pos:R:3:initial_magmoms:R:1:castep_labels:S:1 n_minim_iter=2 pbc="T T T"
P        0.29303736       4.53247389       0.55876099       0.00000000 NULL
P        0.67633770       4.92961713       2.49601347       0.00000000 NULL
P        0.05932563       8.30666399       1.08933614       0.00000000 NULL
P        1.52136172      -0.30679557       5.38078457       0.00000000 NULL
P        2.54339663       4.80209902       5.12831658       0.00000000 NULL
P        0.34372226      -1.83358727       6.04920906       0.00000000 NULL
P        0.93843809       2.38341882       7.43125301       0.00000000 NULL
P        2.64457559       0.22789700       3.21599092       0.00000000 NULL
P        0.95765185       4.58585774       7.28939969       0.00000000 NULL
P       -1.14414262      -0.63686838       6.79954760       0.00000000 NULL
P        0.93221160       6.48227749       3.73335397       0.00000000 NULL
P       -0.69893371       3.78976923       8.17431902       0.00000000 NULL
P        1.11041088       1.60125125       1.13467474       0.00000000 NULL
13
Lattice="4.221376134706491 0.014268101297953955 -0.024636496030079953 -0.549158608797546 8.793300394457145 0.08896626475459393 -1.9099377749235493 -2.638934818423158 8.31413692145043" Properties=species:S:1:pos:R:3:initial_magmoms:R:1:castep_labels:S:1 n_minim_iter=3 pbc="T T T"
P        0.31351049       4.58756078       0.59916529       0.00000000 NULL
P        0.69690610       5.00602814       2.55760455       0.00000000 NULL
P        0.07906201       8.40799798       1.17749484       0.00000000 NULL
P        1.53415449      -0.24530277       5.39264655       0.00000000 NULL
P        2.60051287       4.91784923       5.19107090       0.00000000 NULL
P        0.30862614      -1.80400120       6.06641485       0.00000000 NULL
P        0.92878189       2.48081422       7.49104580       0.00000000 NULL
P        2.69766317       0.26653694       3.22130843       0.00000000 NULL
P        0.96517455       4.71255925       7.36743844       0.00000000 NULL
P       -1.21607737      -0.58019951       6.84944442       0.00000000 NULL
P        0.96433872       6.59500044       3.81272450       0.00000000 NULL
P       -0.75780115       3.90743143       8.26716261       0.00000000 NULL
P        1.14367451       1.63093287       1.14900158       0.00000000 NULL
13
Lattice="4.2907761629481005 0.020696645846337985 -0.05484305931575208 -0.545050341079453 8.727328233844622 0.1667361999145942 -2.0055578639755924 -2.5515822706019926 8.232715793221852" Properties=species:S:1:pos:R:3:initial_magmoms:R:1:castep_labels:S:1 n_minim_iter=4 pbc="T T T"
P        0.32226980       4.55888199       0.62673917       0.00000000 NULL
P        0.69694006       4.98888788       2.57604973       0.00000000 NULL
P        0.08161805       8.35552341       1.24038237       0.00000000 NULL
P        1.52175587      -0.18872591       5.32521419       0.00000000 NULL
P        2.61065648       4.93532499       5.16972207       0.00000000 NULL
P        0.26283566      -1.74468114       5.99556992       0.00000000 NULL
P        0.89222309       2.52638719       7.43877314       0.00000000 NULL
P        2.71381679       0.29280965       3.17514029       0.00000000 NULL
P        0.94104845       4.74283136       7.33328674       0.00000000 NULL
P       -1.28312070      -0.51839911       6.80009141       0.00000000 NULL
P        0.96844673       6.58028207       3.82797284       0.00000000 NULL
P       -0.82652135       3.94815616       8.23614065       0.00000000 NULL
P        1.15899240       1.62615560       1.14318064       0.00000000 NULL
13
Lattice="4.509220572614208 0.05867162766016378 -0.161721570030227 -0.49449428614332197 8.495321585050469 0.45275415920589196 -2.3419666336486986 -2.2399403991107802 7.9812208713419786" Properties=species:S:1:pos:R:3:initial_magmoms:R:1:castep_labels:S:1 n_minim_iter=5 pbc="T T T"
P        0.36912321       4.45957722       0.73089816       0.00000000 NULL
P        0.71089905       4.93558901       2.66055666       0.00000000 NULL
P        0.11961337       8.17104316       1.47763631       0.00000000 NULL
P        1.46773892       0.02036554       5.11542063       0.00000000 NULL
P        2.64465321       5.01521873       5.12593265       0.00000000 NULL
P        0.08786215      -1.52210426       5.77170430       0.00000000 NULL
P        0.76485321       2.70123680       7.29303290       0.00000000 NULL
P        2.75142425       0.40050336       3.02751265       0.00000000 NULL
P        0.86591633       4.86328302       7.25391594       0.00000000 NULL
P       -1.51141357      -0.29584581       6.65495433       0.00000000 NULL
P        1.00375417       6.53815515       3.90769430       0.00000000 NULL
P       -1.04828872       4.10452076       8.16925094       0.00000000 NULL
P        1.21274000       1.61749282       1.13060818       0.00000000 NULL
13
Lattice="4.458414456224029 0.1408104134706955 -0.18851989027764943 -0.31331638382155913 8.47495204079268 0.6301343777754761 -2.4275522321159735 -2.10779484470566 7.898464074569018" Properties=species:S:1:pos:R:3:initial_magmoms:R:1:castep_labels:S:1 n_minim_iter=6 pbc="T T T"
P        0.45382871       4.46661445       0.80388259       0.00000000 NULL
P        0.78500229       4.98478358       2.75273939       0.00000000 NULL
P        0.26779478       8.17113055       1.63921234       0.00000000 NULL
P        1.40966248       0.16825551       5.06302511       0.00000000 NULL
P        2.66136741       5.18109438       5.18602880       0.00000000 NULL
P       -0.01104806      -1.40029287       5.70284386       0.00000000 NULL
P        0.74657148       2.86067450       7.29611210       0.00000000 NULL
P        2.68149278       0.50982392       2.99563615       0.00000000 NULL
P        0.90885366       5.03001171       7.29888309       0.00000000 NULL
P       -1.53424001      -0.17807687       6.62804057       0.00000000 NULL
P        1.11807565       6.62532682       4.01226389       0.00000000 NULL
P       -1.01226415       4.26322381       8.21304991       0.00000000 NULL
P        1.23350924       1.65732429       1.14767197       0.00000000 NULL
13
Lattice="4.526638534830236 0.17932879062919338 -0.2135788934847418 -0.2409888707361631 8.352678714099346 0.7688547581831006 -2.533266397076147 -1.9598038846766126 7.795007212963901" Properties=species:S:1:pos:R:3:initial_magmoms:R:1:castep_labels:S:1 n_minim_iter=7 pbc="T T T"
P        0.50484680       4.41302739       0.86040168       0.00000000 NULL
P        0.82741017       4.95782523       2.81338851       0.00000000 NULL
P        0.32911158       8.06524794       1.75967283       0.00000000 NULL
P        1.39435372       0.27738166       4.99261686       0.00000000 NULL
P        2.70296597       5.23675038       5.20648869       0.00000000 NULL
P       -0.07150104      -1.28653426       5.61549156       0.00000000 NULL
P        0.73052473       2.94576839       7.25866325       0.00000000 NULL
P        2.68672178       0.57479614       2.95303081       0.00000000 NULL
P        0.93537727       5.09944833       7.29563128       0.00000000 NULL
P       -1.58008462      -0.06730843       6.57761576       0.00000000 NULL
P        1.19157826       6.60253075       4.07008059       0.00000000 NULL
P       -1.03496403       4.34547655       8.21077846       0.00000000 NULL
P        1.26906128       1.65807749       1.15404307       0.00000000 NULL
13
Lattice="4.527078198202465 0.24858787496924745 -0.2207690474272787 -0.09416084107326203 8.340184575794131 0.9528242515109417 -2.593304072835667 -1.8150614137837664 7.666080271335285" Properties=species:S:1:pos:R:3:initial_magmoms:R:1:castep_labels:S:1 n_minim_iter=8 pbc="T T T"
P        0.58758961       4.42117876       0.94196660       0.00000000 NULL
P        0.90667823       5.00987127       2.90174877       0.00000000 NULL
P        0.45270518       8.06629542       1.92180571       0.00000000 NULL
P        1.37306250       0.42546469       4.92719949       0.00000000 NULL
P        2.75900426       5.40560951       5.26647646       0.00000000 NULL
P       -0.12841748      -1.16530567       5.51412781       0.00000000 NULL
P        0.74610821       3.10506135       7.23335482       0.00000000 NULL
P        2.65838238       0.67729192       2.92372625       0.00000000 NULL
P        1.01582323       5.28228293       7.32136935       0.00000000 NULL
P       -1.57824625       0.06843631       6.51494577       0.00000000 NULL
P        1.31854347       6.69558520       4.16416391       0.00000000 NULL
P       -0.97761416       4.52392747       8.22649888       0.00000000 NULL
P        1.30624952       1.69534560       1.17578379       0.00000000 NULL
13
Lattice="4.603740028331471 0.25217540305626707 -0.19605636669354073 -0.09707469630805737 8.190295489303281 1.0717667344488109 -2.579371713876976 -1.6540774838532186 7.479517305755167" Properties=species:S:1:pos:R:3:initial_magmoms:R:1:castep_labels:S:1 n_minim_iter=9 pbc="T T T"
P        0.61088976       4.34504751       0.99238831       0.00000000 NULL
P        0.94080463       4.95479391       2.94141730       0.00000000 NULL
P        0.45475923       7.92468555       2.01570655       0.00000000 NULL
P        1.42009524       0.51560068       4.83857999       0.00000000 NULL
P        2.83008380       5.41171131       5.27600993       0.00000000 NULL
P       -0.09680339      -1.06074590       5.37713325       0.00000000 NULL
P        0.79755015       3.15934435       7.14037031       0.00000000 NULL
P        2.70288758       0.71350741       2.89125322       0.00000000 NULL
P        1.09926440       5.32050400       7.27037376       0.00000000 NULL
P       -1.53465625       0.18597001       6.39468947       0.00000000 NULL
P        1.38126082       6.63843928       4.18754940       0.00000000 NULL
P       -0.93240745       4.58987050       8.15209386       0.00000000 NULL
P        1.34266084       1.67648910       1.18883371       0.00000000 NULL
13
Lattice="4.607121201394954 0.28378550329552604 -0.18304757517785966 -0.03049839624319207 8.333055395969852 1.1642693006795923 -2.575278766980615 -1.6235744957088527 7.51352372943628" Properties=species:S:1:pos:R:3:initial_magmoms:R:1:castep_labels:S:1 n_minim_iter=10 pbc="T T T"
P        0.64689754       4.42315833       1.04114118       0.00000000 NULL
P        0.98759990       5.06514809       3.02020335       0.00000000 NULL
P        0.51535006       8.06756878       2.11102286       0.00000000 NULL
P        1.43435480       0.58809006       4.88494031       0.00000000 NULL
P        2.88317261       5.57541701       5.38600746       0.00000000 NULL
P       -0.09675146      -1.03243101       5.40148657       0.00000000 NULL
P        0.83722206       3.28143285       7.22720179       0.00000000 NULL
P        2.70829101       0.76806698       2.93001204       0.00000000 NULL
P        1.16714674       5.49219100       7.38438440       0.00000000 NULL
P       -1.51215473       0.24635221       6.44307178       0.00000000 NULL
P        1.44962762       6.79906039       4.28720978       0.00000000 NULL
P       -0.87403568       4.74727311       8.26636364       0.00000000 NULL
P        1.36287008       1.72297079       1.22253429       0.00000000 NULL
13
Lattice="4.574468282202464 0.2792769243170542 -0.17724525419916026 -0.03557854600407253 8.244687571613236 1.1652016102324638 -2.5462969734998198 -1.5924914731989284 7.443599051681099" Properties=species:S:1:pos:R:3:initial_magmoms:R:1:castep_labels:S:1 n_minim_iter=11 pbc="T T T"
P        0.64045427       4.37590135       1.03755542       0.00000000 NULL
P        0.98109057       5.01397147       3.00180723       0.00000000 NULL
P        0.50667438       7.98166532       2.10269976       0.00000000 NULL
P        1.42932380       0.59191062       4.84433443       0.00000000 NULL
P        2.86424384       5.52590426       5.35148272       0.00000000 NULL
P       -0.08918547      -1.01404036       5.35055336       0.00000000 NULL
P        0.83760457       3.25761567       7.16886384       0.00000000 NULL
P        2.68906715       0.76280356       2.90868816       0.00000000 NULL
P        1.16684086       5.44666628       7.32800074       0.00000000 NULL
P       -1.49137700       0.25582383       6.38567529       0.00000000 NULL
P        1.44096700       6.73283225       4.25756606       0.00000000 NULL
P       -0.86080554       4.71235705       8.20238054       0.00000000 NULL
P        1.35369543       1.70397861       1.21603909       0.00000000 NULL
13
Lattice="4.5815327742026755 0.28130024401943804 -0.17181899278052862 -0.032257041746699126 8.24909220085874 1.1847648166618914 -2.5397634861030847 -1.575491679776098 7.44065603471901" Properties=species:S:1:pos:R:3:initial_magmoms:R:1:castep_labels:S:1 n_minim_iter=12 pbc="T T T"
P        0.64404139       4.37799272       1.04753304       0.00000000 NULL
P        0.98843052       5.02183015       3.01652913       0.00000000 NULL
P        0.51060012       7.98670671       2.12179498       0.00000000 NULL
P        1.43790197       0.60725104       4.84970592       0.00000000 NULL
P        2.87728786       5.54354974       5.37190352       0.00000000 NULL
P       -0.08246760      -1.00302140       5.34833734       0.00000000 NULL
P        0.84944925       3.27549042       7.17971754       0.00000000 NULL
P        2.69545815       0.77068982       2.91544948       0.00000000 NULL
P        1.18308971       5.46840281       7.34512914       0.00000000 NULL
P       -1.48263977       0.27221968       6.38790098       0.00000000 NULL
P        1.45185059       6.74619226       4.27457166       0.00000000 NULL
P       -0.84868926       4.73548732       8.21848100       0.00000000 NULL
P        1.35833213       1.70704093       1.22300891       0.00000000 NULL
13
Lattice="4.582904789080922 0.28298877638222797 -0.16527791280610885 -0.028864232347307988 8.241413979311174 1.2046683630777437 -2.528264304915643 -1.5541325990267545 7.427382625265003" Properties=species:S:1:pos:R:3:initial_magmoms:R:1:castep_labels:S:1 n_minim_iter=13 pbc="T T T"
P        0.64685916       4.37355707       1.05711541       0.00000000 NULL
P        0.99525258       5.02279547       3.02866318       0.00000000 NULL
P        0.51393556       7.98001562       2.13985460       0.00000000 NULL
P        1.44582786       0.62357500       4.84941612       0.00000000 NULL
P        2.88778259       5.55487265       5.38775453       0.00000000 NULL
P       -0.07445096      -0.98941581       5.33853932       0.00000000 NULL
P        0.86193261       3.29041352       7.18225570       0.00000000 NULL
P        2.69866584       0.77808151       2.91935061       0.00000000 NULL
P        1.20003696       5.48424825       7.35425530       0.00000000 NULL
P       -1.47033666       0.28999826       6.38163149       0.00000000 NULL
P        1.46194072       6.75074398       4.28741629       0.00000000 NULL
P       -0.83368346       4.75412228       8.22554269       0.00000000 NULL
P        1.36153179       1.70759504       1.22923005       0.00000000 NULL
13
Lattice="4.590370307826348 0.298483413908427 -0.10906729196560468 0.0029729203031835026 8.190030216325868 1.3655420060444694 -2.4281943083866544 -1.3852404941933385 7.325509182743042" Properties=species:S:1:pos:R:3:initial_magmoms:R:1:castep_labels:S:1 n_minim_iter=14 pbc="T T T"
P        0.67048039       4.34254199       1.13514853       0.00000000 NULL
P        1.05432703       5.03729300       3.12878354       0.00000000 NULL
P        0.54510019       7.93619017       2.28643614       0.00000000 NULL
P        1.51356808       0.75730601       4.85421130       0.00000000 NULL
P        2.97767564       5.65473653       5.52356882       0.00000000 NULL
P       -0.00592592      -0.88237789       5.26302836       0.00000000 NULL
P        0.96998248       3.41493391       7.20987642       0.00000000 NULL
P        2.72518408       0.83931064       2.95558441       0.00000000 NULL
P        1.34505705       5.61891365       7.43552407       0.00000000 NULL
P       -1.36564211       0.43234729       6.33555986       0.00000000 NULL
P        1.54772230       6.79611200       4.39507706       0.00000000 NULL
P       -0.70336597       4.91018594       8.29074933       0.00000000 NULL
P        1.38777231       1.71490211       1.28176509       0.00000000 NULL
13
Lattice="4.532667259809478 0.28302834897581536 -0.048500847217039164 -0.021884783823643925 8.094428235640708 1.465187950567512 -2.2705012255043053 -1.245537675200306 7.255985935142171" Properties=species:S:1:pos:R:3:initial_magmoms:R:1:castep_labels:S:1 n_minim_iter=15 pbc="T T T"
P        0.64779665       4.27664255       1.18425763       0.00000000 NULL
P        1.06909199       5.00521279       3.19571077       0.00000000 NULL
P        0.51813606       7.84508616       2.37901492       0.00000000 NULL
P        1.57033120       0.84741308       4.88004264       0.00000000 NULL
P        3.00232196       5.67318163       5.63955807       0.00000000 NULL
P        0.08430398      -0.80811126       5.20799064       0.00000000 NULL
P        1.06359612       3.47375348       7.23973142       0.00000000 NULL
P        2.72011833       0.85822163       2.99901907       0.00000000 NULL
P        1.44688136       5.66428049       7.49574652       0.00000000 NULL
P       -1.24588566       0.53049056       6.29986559       0.00000000 NULL
P        1.56621823       6.77126586       4.46271175       0.00000000 NULL
P       -0.58745953       4.98759971       8.34812265       0.00000000 NULL
P        1.38042678       1.69837833       1.32772251       0.00000000 NULL
13
Lattice="4.564002431181694 0.2876255047574026 -0.039639864718676754 -0.016435903728683244 8.153716790298828 1.507436756202945 -2.2693593386316935 -1.2246682148284365 7.293647540036553" Properties=species:S:1:pos:R:3:initial_magmoms:R:1:castep_labels:S:1 n_minim_iter=16 pbc="T T T"
P        0.65469458       4.30610566       1.20889226       0.00000000 NULL
P        1.08565929       5.05124711       3.23826623       0.00000000 NULL
P        0.52690600       7.90549452       2.42652322       0.00000000 NULL
P        1.59311490       0.87916155       4.92043359       0.00000000 NULL
P        3.03848752       5.73839855       5.70707168       0.00000000 NULL
P        0.09646548      -0.79445590       5.23427136       0.00000000 NULL
P        1.08987868       3.52653762       7.30114332       0.00000000 NULL
P        2.74551958       0.87722798       3.02721838       0.00000000 NULL
P        1.48007999       5.73555197       7.56835945       0.00000000 NULL
P       -1.24041251       0.55983095       6.33994352       0.00000000 NULL
P        1.59037422       6.83635987       4.51841116       0.00000000 NULL
P       -0.57103672       5.05702402       8.42555665       0.00000000 NULL
P        1.39376362       1.71607047       1.34757446       0.00000000 NULL
13
Lattice="4.553608941410569 0.2858432687446178 -0.03690634902695822 -0.01878917200691922 8.128403784053619 1.512660510827617 -2.258117159140759 -1.2106700777714656 7.270493539910678" Properties=species:S:1:pos:R:3:initial_magmoms:R:1:castep_labels:S:1 n_minim_iter=17 pbc="T T T"
P        0.65123724       4.29102447       1.21012966       0.00000000 NULL
P        1.08391889       5.03793682       3.23510401       0.00000000 NULL
P        0.52305208       7.88157083       2.42881396       0.00000000 NULL
P        1.59321706       0.88501064       4.90988042       0.00000000 NULL
P        3.03356116       5.72806043       5.70120491       0.00000000 NULL
P        0.10057885      -0.78660715       5.21606775       0.00000000 NULL
P        1.09260571       3.52414529       7.28515497       0.00000000 NULL
P        2.74017020       0.87698105       3.02162892       0.00000000 NULL
P        1.48263221       5.72665452       7.55339874       0.00000000 NULL
P       -1.23370904       0.56585352       6.32122626       0.00000000 NULL
P        1.58814876       6.81958417       4.51228278       0.00000000 NULL
P       -0.56629393       5.05218227       8.41035866       0.00000000 NULL
P        1.39067904       1.71125274       1.34735707       0.00000000 NULL
13
Lattice="4.5529769402410025 0.28531032549445673 -0.032373176507967845 -0.01983271916457578 8.1236359956355 1.5248041101483003 -2.2483391920817426 -1.1967903360514571 7.264747617853056" Properties=species:S:1:pos:R:3:initial_magmoms:R:1:castep_labels:S:1 n_minim_iter=18 pbc="T T T"
P        0.65004431       4.28673691       1.21620295       0.00000000 NULL
P        1.08637891       5.03845538       3.24266414       0.00000000 NULL
P        0.52187503       7.87797153       2.44050505       0.00000000 NULL
P        1.59905063       0.89552212       4.91308305       0.00000000 NULL
P        3.03847118       5.73446274       5.71334281       0.00000000 NULL
P        0.10721944      -0.77854333       5.21094097       0.00000000 NULL
P        1.10129272       3.53338868       7.28944982       0.00000000 NULL
P        2.74247330       0.88058762       3.02515083       0.00000000 NULL
P        1.49248594       5.73530553       7.56065947       0.00000000 NULL
P       -1.22659984       0.57596640       6.31867264       0.00000000 NULL
P        1.59195680       6.82169191       4.52089819       0.00000000 NULL
P       -0.55828097       5.06333314       8.41858923       0.00000000 NULL
P        1.39144403       1.71164706       1.35197776       0.00000000 NULL
13
Lattice="4.548414546400112 0.2814638905246755 -0.003774402755828563 -0.02736421785627411 8.095113361740077 1.59522692841721 -2.186083057886896 -1.1153645630236166 7.236510080611578" Properties=species:S:1:pos:R:3:initial_magmoms:R:1:castep_labels:S:1 n_minim_iter=19 pbc="T T T"
P        0.64217103       4.26057767       1.25173692       0.00000000 NULL
P        1.10110789       5.04091495       3.28888079       0.00000000 NULL
P        0.51389270       7.85637191       2.50938055       0.00000000 NULL
P        1.63557234       0.95685796       4.93690611       0.00000000 NULL
P        3.06868531       5.77109827       5.78956669       0.00000000 NULL
P        0.14921942      -0.73166393       5.18518224       0.00000000 NULL
P        1.15546202       3.58683425       7.32051237       0.00000000 NULL
P        2.75725933       0.90123979       3.04926189       0.00000000 NULL
P        1.55298197       5.78487757       7.60883680       0.00000000 NULL
P       -1.18151964       0.63470456       6.30816520       0.00000000 NULL
P        1.61481922       6.83312482       4.57420447       0.00000000 NULL
P       -0.50791646       5.12818222       8.47297665       0.00000000 NULL
P        1.39605599       1.71392774       1.38062886       0.00000000 NULL
13
Lattice="4.5299676341970345 0.26822416766772 0.05036714904888447 -0.05291173860287841 8.030901464509016 1.6916859086297789 -2.060022986884902 -0.9902868918294933 7.241632252868595" Properties=species:S:1:pos:R:3:initial_magmoms:R:1:castep_labels:S:1 n_minim_iter=20 pbc="T T T"
P        0.61933754       4.20089929       1.30212064       0.00000000 NULL
P        1.12003669       5.02866817       3.37036737       0.00000000 NULL
P        0.48720177       7.80395112       2.61271947       0.00000000 NULL
P        1.70089014       1.04589993       5.01194864       0.00000000 NULL
P        3.11438086       5.80684964       5.94048338       0.00000000 NULL
P        0.23021577      -0.66394965       5.17959188       0.00000000 NULL
P        1.25315694       3.65298734       7.41259012       0.00000000 NULL
P        2.78253091       0.92527040       3.11064764       0.00000000 NULL
P        1.65586110       5.83804376       7.72132112       0.00000000 NULL
P       -1.09527728       0.71569446       6.32912348       0.00000000 NULL
P        1.64746891       6.82962769       4.67105023       0.00000000 NULL
P       -0.41812491       5.21018440       8.60682629       0.00000000 NULL
P        1.40084329       1.71360683       1.43587852       0.00000000 NULL
13
Lattice="4.518823145061522 0.2809664958395972 0.050897916038078195 -0.024357451956682194 7.9475772345906766 1.7484945433801857 -2.062404708713139 -0.9165529202278629 7.2193909523426205" Properties=species:S:1:pos:R:3:initial_magmoms:R:1:castep_labels:S:1 n_minim_iter=21 pbc="T T T"
P        0.61713976       4.12794328       1.32089032       0.00000000 NULL
P        1.13738282       4.99827417       3.39599361       0.00000000 NULL
P        0.49562386       7.73601495       2.66726979       0.00000000 NULL
P        1.70121312       1.11348601       5.02213528       0.00000000 NULL
P        3.12871912       5.81878011       5.98493501       0.00000000 NULL
P        0.21900052      -0.62258962       5.13347723       0.00000000 NULL
P        1.27225687       3.67936178       7.42162179       0.00000000 NULL
P        2.77232027       0.95162443       3.11228842       0.00000000 NULL
P        1.69400166       5.85014610       7.73470207       0.00000000 NULL
P       -1.11197787       0.74748390       6.31050389       0.00000000 NULL
P        1.68433895       6.80294815       4.69563025       0.00000000 NULL
P       -0.41909906       5.23501594       8.66719501       0.00000000 NULL
P        1.40818550       1.71898131       1.46186740       0.00000000 NULL
13
Lattice="4.560382302605283 0.27989790955748217 0.07052974963645571 -0.03232810878261643 7.969912826827554 1.7447118979202114 -2.0402920379505383 -0.9239674448551192 7.295138039828091" Properties=species:S:1:pos:R:3:initial_magmoms:R:1:castep_labels:S:1 n_minim_iter=22 pbc="T T T"
P        0.62019342       4.13336323       1.32567953       0.00000000 NULL
P        1.15575772       5.00930646       3.42447088       0.00000000 NULL
P        0.49498520       7.75788994       2.67730221       0.00000000 NULL
P        1.74052567       1.11545527       5.08372652       0.00000000 NULL
P        3.18019477       5.83159845       6.05104396       0.00000000 NULL
P        0.24901450      -0.63062460       5.19024298       0.00000000 NULL
P        1.31689310       3.68295323       7.49946355       0.00000000 NULL
P        2.81312532       0.95160691       3.15801199       0.00000000 NULL
P        1.74276471       5.86189160       7.81091158       0.00000000 NULL
P       -1.09106969       0.74322045       6.37431397       0.00000000 NULL
P        1.71278191       6.82034190       4.73408954       0.00000000 NULL
P       -0.38924143       5.24507035       8.75403880       0.00000000 NULL
P        1.42606957       1.72450969       1.48237912       0.00000000 NULL
13
Lattice="4.54539024082742 0.2779974872436728 0.06851464965880827 -0.03430084045166313 7.924838736113049 1.7317037167670912 -2.0365432922173845 -0.9217903950374405 7.264780691727827" Properties=species:S:1:pos:R:3:initial_magmoms:R:1:castep_labels:S:1 n_minim_iter=23 pbc="T T T"
P        0.61578005       4.10720802       1.31648274       0.00000000 NULL
P        1.15009200       4.97955413       3.40522115       0.00000000 NULL
P        0.48973920       7.71439096       2.66056833       0.00000000 NULL
P        1.73254646       1.10842169       5.06035970       0.00000000 NULL
P        3.16694020       5.79750427       6.02059657       0.00000000 NULL
P        0.24582426      -0.63041540       5.16587871       0.00000000 NULL
P        1.31007948       3.65936303       7.46421604       0.00000000 NULL
P        2.80177937       0.94511482       3.14331409       0.00000000 NULL
P        1.73448536       5.82594567       7.77101294       0.00000000 NULL
P       -1.09182225       0.73476456       6.34551269       0.00000000 NULL
P        1.70580486       6.78098573       4.70750776       0.00000000 NULL
P       -0.39418578       5.21253779       8.71564722       0.00000000 NULL
P        1.42100540       1.71476029       1.47547672       0.00000000 NULL
13
Lattice="4.548579021789696 0.27922653661351204 0.06959723261677113 -0.03213189353598514 7.91799946584169 1.7315068585142783 -2.0365601620500073 -0.9203167280099502 7.2692716732697855" Properties=species:S:1:pos:R:3:initial_magmoms:R:1:castep_labels:S:1 n_minim_iter=24 pbc="T T T"
P        0.61648813       4.10129559       1.31637285       0.00000000 NULL
P        1.15298310       4.97556588       3.40647346       0.00000000 NULL
P        0.49096932       7.70874676       2.66146014       0.00000000 NULL
P        1.73499916       1.11050683       5.06414887       0.00000000 NULL
P        3.17261334       5.79517215       6.02498507       0.00000000 NULL
P        0.24646671      -0.62996000       5.16731103       0.00000000 NULL
P        1.31428955       3.65750367       7.46864019       0.00000000 NULL
P        2.80434987       0.94613537       3.14639851       0.00000000 NULL
P        1.74038784       5.82304643       7.77447504       0.00000000 NULL
P       -1.09233584       0.73358501       6.34869518       0.00000000 NULL
P        1.71110965       6.77695889       4.70911503       0.00000000 NULL
P       -0.39262066       5.20965378       8.72328288       0.00000000 NULL
P        1.42335413       1.71486507       1.47786745       0.00000000 NULL
13
Lattice="4.552084516323643 0.28112192689749554 0.07090054561053043 -0.028593206690683035 7.90476863256676 1.7308008151101817 -2.0367063671135983 -0.9176469236051672 7.2736761041817655" Properties=species:S:1:pos:R:3:initial_magmoms:R:1:castep_labels:S:1 n_minim_iter=25 pbc="T T T"
P        0.61735019       4.09065551       1.31578540       0.00000000 NULL
P        1.15699728       4.96774757       3.40715641       0.00000000 NULL
P        0.49268514       7.69755225       2.66208812       0.00000000 NULL
P        1.73779715       1.11355182       5.06802144       0.00000000 NULL
P        3.18010436       5.78978886       6.02949606       0.00000000 NULL
P        0.24681847      -0.62901861       5.16745435       0.00000000 NULL
P        1.31989283       3.65354289       7.47276407       0.00000000 NULL
P        2.80712560       0.94755788       3.14988122       0.00000000 NULL
P        1.74854430       5.81676170       7.77689605       0.00000000 NULL
P       -1.09351332       0.73149052       6.35134489       0.00000000 NULL
P        1.71874712       6.76858484       4.70993034       0.00000000 NULL
P       -0.39080575       5.20355458       8.73223511       0.00000000 NULL
P        1.42653963       1.71454859       1.48104128       0.00000000 NULL
13
Lattice="4.575186696074507 0.29538486703690564 0.07918851072215069 -0.0015145662910804594 7.818125132602267 1.7296989428069658 -2.0394376539452295 -0.8977331108800264 7.304500783340138" Properties=species:S:1:pos:R:3:initial_magmoms:R:1:castep_labels:S:1 n_minim_iter=26 pbc="T T T"
P        0.62405792       4.01988134       1.31376000       0.00000000 NULL
P        1.18548114       4.91750644       3.41391400       0.00000000 NULL
P        0.50610344       7.62570520       2.67027295       0.00000000 NULL
P        1.75569538       1.13721328       5.09501103       0.00000000 NULL
P        3.23215802       5.75792940       6.06284058       0.00000000 NULL
P        0.24734552      -0.62117599       5.16801758       0.00000000 NULL
P        1.35779585       3.63077798       7.50310929       0.00000000 NULL
P        2.82508680       0.95996480       3.17437359       0.00000000 NULL
P        1.80486122       5.77950005       7.79604558       0.00000000 NULL
P       -1.10331560       0.71918707       6.37067298       0.00000000 NULL
P        1.77302263       6.71626275       4.71896809       0.00000000 NULL
P       -0.37844578       5.16670222       8.79732872       0.00000000 NULL
P        1.44899053       1.71435709       1.50391599       0.00000000 NULL
