4
Lattice="3.2143499999999903 2.2476519501549905e-14 3.4058755024018796e-16 -1.0391896637661597 4.207013241519649 1.4028135529091924e-15 -1.6032449237314619 -0.52096814961559 6.399521217287701" Properties=species:S:1:pos:R:3:initial_magmoms:R:1:castep_labels:S:1 n_minim_iter=1 pbc="T T T"
P        1.56644763       3.29577289       1.21741740       0.00000000 NULL
P       -1.09506533       3.68186834       3.63562432       0.00000000 NULL
P        0.22433919       1.78650096       1.36491356       0.00000000 NULL
P        0.83633591       1.78037718       6.06736111       0.00000000 NULL
4
Lattice="3.215625534820031 0.00020477612281084346 -0.00017180963903406978 -1.039334024753807 4.20788599018473 0.00012780123089710564 -1.6042563804780448 -0.5210766486665733 6.400916014576203" Properties=species:S:1:pos:R:3:initial_magmoms:R:1:castep_labels:S:1 n_minim_iter=2 pbc="T T T"
P        1.56731966       3.29700786       1.21786056       0.00000000 NULL
P       -1.09550366       3.68270804       3.63648574       0.00000000 NULL
P        0.22440704       1.78660174       1.36541669       0.00000000 NULL
P        0.83645741       1.78086374       6.06818291       0.00000000 NULL
4
Lattice="3.309574976090938 0.015531156925743769 -0.013149120292661728 -1.0496480855445798 4.271265589173741 0.009530451073667994 -1.6794370844845854 -0.5292623467322851 6.5020477992709385" Properties=species:S:1:pos:R:3:initial_magmoms:R:1:castep_labels:S:1 n_minim_iter=3 pbc="T T T"
P        1.63191045       3.38764664       1.25004474       0.00000000 NULL
P       -1.12796298       3.74366322       3.69892163       0.00000000 NULL
P        0.22915437       1.79348257       1.40209138       0.00000000 NULL
P        0.84503567       1.81617457       6.12671102       0.00000000 NULL
4
Lattice="3.3394129383350064 0.037143500375324066 -0.03830997862117954 -1.0310078898220592 4.244884918298443 0.01721262743302473 -1.747915735159403 -0.5383284853564317 6.438117174451958" Properties=species:S:1:pos:R:3:initial_magmoms:R:1:castep_labels:S:1 n_minim_iter=4 pbc="T T T"
P        1.66487152       3.39685213       1.23446879       0.00000000 NULL
P       -1.14652159       3.72139644       3.66115267       0.00000000 NULL
P        0.23011797       1.77362580       1.39082084       0.00000000 NULL
P        0.81862418       1.80946501       6.03127191       0.00000000 NULL
4
Lattice="3.3755936389256105 0.05552444811026833 -0.0626509676921778 -1.018647605338034 4.17451802884423 -0.0025834949959168234 -1.8174019730918576 -0.5816021168968524 6.34850031943522" Properties=species:S:1:pos:R:3:initial_magmoms:R:1:castep_labels:S:1 n_minim_iter=5 pbc="T T T"
P        1.69659071       3.36067016       1.19620744       0.00000000 NULL
P       -1.17293748       3.63799027       3.58297083       0.00000000 NULL
P        0.23458234       1.72368176       1.36666467       0.00000000 NULL
P        0.79336737       1.74549515       5.88900512       0.00000000 NULL
4
Lattice="3.4088250928428248 0.0672282909295188 -0.08216266335940146 -1.0140729826944015 4.062455366370121 -0.04528384148951043 -1.874720248807192 -0.648580630983735 6.242962469283281" Properties=species:S:1:pos:R:3:initial_magmoms:R:1:castep_labels:S:1 n_minim_iter=6 pbc="T T T"
P        1.71731015       3.27667934       1.14050745       0.00000000 NULL
P       -1.20216441       3.50029173       3.47759307       0.00000000 NULL
P        0.24163170       1.64861996       1.33091599       0.00000000 NULL
P        0.77448438       1.63331870       5.72075937       0.00000000 NULL
4
Lattice="3.520037994651439 0.07272640976360659 -0.14143545358943316 -1.0428317175236816 3.7514596066483237 -0.14243296468189182 -2.0490893572609665 -0.7899598553981612 5.998272197543037" Properties=species:S:1:pos:R:3:initial_magmoms:R:1:castep_labels:S:1 n_minim_iter=7 pbc="T T T"
P        1.73828163       3.02761622       1.00607691       0.00000000 NULL
P       -1.33069321       3.13690304       3.24387056       0.00000000 NULL
P        0.25237076       1.43877012       1.24682022       0.00000000 NULL
P        0.71580451       1.34355809       5.29908853       0.00000000 NULL
4
Lattice="3.6583961893224677 0.120895072155538 -0.10719973752508144 -1.024518280993849 3.627429160905516 -0.20083843558802353 -2.0577456083960044 -0.8725618177319774 6.208830108056404" Properties=species:S:1:pos:R:3:initial_magmoms:R:1:castep_labels:S:1 n_minim_iter=8 pbc="T T T"
P        1.86323543       2.96708870       1.01643707       0.00000000 NULL
P       -1.29813796       2.98647288       3.35779837       0.00000000 NULL
P        0.31013473       1.35982890       1.27784494       0.00000000 NULL
P        0.85534185       1.24634183       5.46718816       0.00000000 NULL
4
Lattice="3.6070217651143857 0.13453737777722724 -0.14680286002059129 -0.9900537295248789 3.560600114001587 -0.176890553969623 -2.113179038039901 -0.8546845701907639 6.005275038426133" Properties=species:S:1:pos:R:3:initial_magmoms:R:1:castep_labels:S:1 n_minim_iter=9 pbc="T T T"
P        1.83765934       2.92714575       0.96300732       0.00000000 NULL
P       -1.31476793       2.93756301       3.25458479       0.00000000 NULL
P        0.29264900       1.34081965       1.22206415       0.00000000 NULL
P        0.78393594       1.23680314       5.26262757       0.00000000 NULL
