10
Lattice="5.203569999999999 4.515430559419491e-16 5.919109822645936e-16 -2.106252272604981 6.162231854340305 -1.6871419415272981e-15 -1.3442385470341938 -2.0097725362965417 6.768168123585256" Properties=species:S:1:pos:R:3:initial_magmoms:R:1:castep_labels:S:1 n_minim_iter=1 pbc="T T T"
P        3.12522486       2.05495279       1.15409314       0.00000000 NULL
P       -1.23055577       5.06571084       3.52427042       0.00000000 NULL
P        0.77231225       2.85693826       6.52602811       0.00000000 NULL
P        0.52199715       4.09809706       3.47676194       0.00000000 NULL
P        1.15377061       0.06121022       1.90331040       0.00000000 NULL
P       -0.00480970       1.02586084       3.70547120       0.00000000 NULL
P       -2.25958223       4.20169254       5.09345599       0.00000000 NULL
P        4.12828143      -0.68403957       3.78780935       0.00000000 NULL
P        1.86401603       4.17846190       1.68425661       0.00000000 NULL
P        2.55908852      -0.02359195       4.93915529       0.00000000 NULL
10
Lattice="5.216060999876975 -0.0006937577120780101 -0.0008252417866333852 -2.1121298321939843 6.170024091602783 -0.003571278380923785 -1.3482707717344666 -2.0163324448129245 6.774917083181296" Properties=species:S:1:pos:R:3:initial_magmoms:R:1:castep_labels:S:1 n_minim_iter=2 pbc="T T T"
P        3.13212879       2.05641174       1.15324611       0.00000000 NULL
P       -1.23448352       5.06980300       3.52405340       0.00000000 NULL
P        0.77275076       2.85623496       6.52910237       0.00000000 NULL
P        0.52224889       4.10037528       3.47675723       0.00000000 NULL
P        1.15628738       0.06022265       1.90434675       0.00000000 NULL
P       -0.00539524       1.02513890       3.70763669       0.00000000 NULL
P       -2.26641017       4.20360264       5.09544346       0.00000000 NULL
P        4.13730709      -0.68772057       3.79050592       0.00000000 NULL
P        1.86781954       4.18197277       1.68244309       0.00000000 NULL
P        2.56428478      -0.02701547       4.94274921       0.00000000 NULL
10
Lattice="5.587805176628287 -0.020947433869708487 -0.023694870023331257 -2.2865859969993303 6.397548701678665 -0.1107149795234461 -1.4662269169874025 -2.210478660204482 6.967209223182314" Properties=species:S:1:pos:R:3:initial_magmoms:R:1:castep_labels:S:1 n_minim_iter=3 pbc="T T T"
P        3.33783636       2.09870185       1.12759501       0.00000000 NULL
P       -1.34948945       5.18786770       3.51278792       0.00000000 NULL
P        0.78814471       2.83329891       6.61296037       0.00000000 NULL
P        0.53127369       4.16520376       3.47269449       0.00000000 NULL
P        1.23182955       0.03104815       1.93327488       0.00000000 NULL
P       -0.02136192       1.00293588       3.76726551       0.00000000 NULL
P       -2.46776134       4.25708810       5.14755012       0.00000000 NULL
P        4.40667490      -0.79653337       3.86767232       0.00000000 NULL
P        1.98227408       4.28362156       1.62697053       0.00000000 NULL
P        2.72031099      -0.12896288       5.04440051       0.00000000 NULL
10
Lattice="5.748773335048119 -0.012595485448315485 0.01994855206423018 -2.3418505378588947 6.42191195619684 -0.22958180414228402 -1.4542695688163678 -2.3328371421827674 6.901024211652048" Properties=species:S:1:pos:R:3:initial_magmoms:R:1:castep_labels:S:1 n_minim_iter=4 pbc="T T T"
P        3.44216139       2.09772724       1.10717880       0.00000000 NULL
P       -1.34160736       5.15084778       3.37483777       0.00000000 NULL
P        0.87083432       2.74158134       6.49045666       0.00000000 NULL
P        0.58258817       4.11937181       3.36386345       0.00000000 NULL
P        1.28312339       0.00908981       1.91679044       0.00000000 NULL
P        0.01485830       0.95301956       3.69779819       0.00000000 NULL
P       -2.48957491       4.18463984       4.99665302       0.00000000 NULL
P        4.55749309      -0.85370041       3.86696276       0.00000000 NULL
P        2.06762735       4.27091546       1.54659626       0.00000000 NULL
P        2.83791864      -0.20720015       5.00120546       0.00000000 NULL
10
Lattice="5.958718843408771 0.026866441110713186 0.10108328840487296 -2.3800982530298738 6.3491104319333465 -0.4102989962230977 -1.4182160142618214 -2.486914093994688 6.746518612712775" Properties=species:S:1:pos:R:3:initial_magmoms:R:1:castep_labels:S:1 n_minim_iter=5 pbc="T T T"
P        3.59245375       2.08085799       1.07841885       0.00000000 NULL
P       -1.28211829       5.00999743       3.14250868       0.00000000 NULL
P        1.02399326       2.56633510       6.26273284       0.00000000 NULL
P        0.68528878       3.99208335       3.17972120       0.00000000 NULL
P        1.35811928      -0.01739297       1.88248719       0.00000000 NULL
P        0.08572350       0.86380436       3.56618754       0.00000000 NULL
P       -2.47157820       4.00214081       4.72663534       0.00000000 NULL
P        4.76823894      -0.90687687       3.84943068       0.00000000 NULL
P        2.21270498       4.19530733       1.42274115       0.00000000 NULL
P        3.01275718      -0.30891083       4.90788906       0.00000000 NULL
10
Lattice="6.332789236125154 0.12416711502212599 0.18483776638625893 -2.4162844295485773 6.08628394822692 -0.6063189044708349 -1.4434924447321973 -2.617235372158801 6.5962985953826285" Properties=species:S:1:pos:R:3:initial_magmoms:R:1:castep_labels:S:1 n_minim_iter=6 pbc="T T T"
P        3.85810873       2.04438858       1.04613731       0.00000000 NULL
P       -1.18835252       4.70910167       2.90251822       0.00000000 NULL
P        1.23452779       2.30758531       6.02629085       0.00000000 NULL
P        0.84426389       3.74938810       2.98793904       0.00000000 NULL
P        1.47129305      -0.03447948       1.84636368       0.00000000 NULL
P        0.16996318       0.74446087       3.43043081       0.00000000 NULL
P       -2.47454023       3.67045296       4.44505743       0.00000000 NULL
P        5.10157776      -0.90922870       3.83477082       0.00000000 NULL
P        2.47002305       4.01860391       1.29085121       0.00000000 NULL
P        3.26598991      -0.39386914       4.81905489       0.00000000 NULL
10
Lattice="6.813684396063208 0.21686284591226684 0.2383252367759821 -2.5011634525753985 5.760779440419432 -0.6889632888754004 -1.5339539842412113 -2.6142491548336606 6.6350671018321306" Properties=species:S:1:pos:R:3:initial_magmoms:R:1:castep_labels:S:1 n_minim_iter=7 pbc="T T T"
P        4.17803476       2.00360205       1.06228248       0.00000000 NULL
P       -1.13244616       4.41270196       2.87083949       0.00000000 NULL
P        1.42108956       2.12535817       6.03283715       0.00000000 NULL
P        0.98050743       3.52044414       2.97334481       0.00000000 NULL
P        1.59482474      -0.03041636       1.85748481       0.00000000 NULL
P        0.22152869       0.67654235       3.43277015       0.00000000 NULL
P       -2.55361114       3.38735441       4.40027323       0.00000000 NULL
P        5.50285109      -0.85094308       3.90673904       0.00000000 NULL
P        2.75215506       3.82499322       1.27462072       0.00000000 NULL
P        3.54500072      -0.39535174       4.87436282       0.00000000 NULL
10
Lattice="6.7261979363361135 0.22322507896058014 0.2677419207642401 -2.4582171465244738 5.592511376285407 -0.7334789252275753 -1.4755492557318222 -2.59766811121261 6.497269491021252" Properties=species:S:1:pos:R:3:initial_magmoms:R:1:castep_labels:S:1 n_minim_iter=8 pbc="T T T"
P        4.12365787       1.95229889       1.04228274       0.00000000 NULL
P       -1.06542047       4.25333185       2.77575074       0.00000000 NULL
P        1.44641442       2.01512278       5.88428976       0.00000000 NULL
P        0.98250782       3.38401719       2.88708729       0.00000000 NULL
P        1.57271639      -0.04077856       1.82045213       0.00000000 NULL
P        0.23585672       0.63578202       3.34529637       0.00000000 NULL
P       -2.47591262       3.25368938       4.24742274       0.00000000 NULL
P        5.46050213      -0.85327068       3.86397222       0.00000000 NULL
P        2.75056995       3.69803953       1.22623191       0.00000000 NULL
P        3.53060015      -0.41437015       4.78720132       0.00000000 NULL
10
Lattice="6.85245348885218 0.21857419720799515 0.2764255048285997 -2.5148294062043712 5.626742764909146 -0.7577682564764266 -1.4950740068527686 -2.629834257609952 6.543231348561677" Properties=species:S:1:pos:R:3:initial_magmoms:R:1:castep_labels:S:1 n_minim_iter=9 pbc="T T T"
P        4.19627663       1.95819279       1.04606348       0.00000000 NULL
P       -1.08283566       4.26562931       2.78477685       0.00000000 NULL
P        1.47425941       2.00953878       5.91172024       0.00000000 NULL
P        0.99048721       3.38536687       2.89716656       0.00000000 NULL
P        1.60144881      -0.04537207       1.82844817       0.00000000 NULL
P        0.23450514       0.63428258       3.36353590       0.00000000 NULL
P       -2.52491285       3.26289553       4.25722762       0.00000000 NULL
P        5.57010419      -0.87470282       3.90044079       0.00000000 NULL
P        2.80035065       3.70683220       1.22526674       0.00000000 NULL
P        3.59904426      -0.42909986       4.82520350       0.00000000 NULL
10
Lattice="6.863579363083105 0.21505111279670436 0.2896915447426143 -2.523504981024807 5.608494914496172 -0.7661070672060935 -1.4793325912949 -2.625768686788604 6.504976865950196" Properties=species:S:1:pos:R:3:initial_magmoms:R:1:castep_labels:S:1 n_minim_iter=10 pbc="T T T"
P        4.20184192       1.95049617       1.04543776       0.00000000 NULL
P       -1.07251261       4.24677114       2.76515476       0.00000000 NULL
P        1.49081927       1.99751460       5.87559658       0.00000000 NULL
P        0.99245987       3.36522639       2.87966059       0.00000000 NULL
P        1.60484786      -0.04691400       1.81929091       0.00000000 NULL
P        0.23816947       0.63232730       3.34232093       0.00000000 NULL
P       -2.51823677       3.25166885       4.21831540       0.00000000 NULL
P        5.59221925      -0.87820380       3.89491582       0.00000000 NULL
P        2.81059868       3.68764586       1.21845035       0.00000000 NULL
P        3.61704308      -0.43031801       4.80749146       0.00000000 NULL
10
Lattice="6.875497855455322 0.21236351243540383 0.2979098166193742 -2.5315119777987816 5.603137063028679 -0.7728902661692867 -1.4706841414282399 -2.6267687525952246 6.487830468114612" Properties=species:S:1:pos:R:3:initial_magmoms:R:1:castep_labels:S:1 n_minim_iter=11 pbc="T T T"
P        4.20850720       1.94684879       1.04555237       0.00000000 NULL
P       -1.06827075       4.23903504       2.75452929       0.00000000 NULL
P        1.50164226       1.99104001       5.85817014       0.00000000 NULL
P        0.99420863       3.35588352       2.87069523       0.00000000 NULL
P        1.60850903      -0.04837559       1.81528086       0.00000000 NULL
P        0.24042283       0.63093738       3.33235332       0.00000000 NULL
P       -2.51697150       3.24714155       4.19809160       0.00000000 NULL
P        5.60977642      -0.88217835       3.89475002       0.00000000 NULL
P        2.81788987       3.67919581       1.21484888       0.00000000 NULL
P        3.63062095      -0.43276849       4.80092558       0.00000000 NULL
10
Lattice="6.92402652857251 0.2008890116738456 0.3324442912418444 -2.5647434250830714 5.584391582012396 -0.8008630164972904 -1.4338705396582405 -2.631546307232016 6.41767865185173" Properties=species:S:1:pos:R:3:initial_magmoms:R:1:castep_labels:S:1 n_minim_iter=12 pbc="T T T"
P        4.23615370       1.93243916       1.04656955       0.00000000 NULL
P       -1.05105509       4.21009898       2.71079650       0.00000000 NULL
P        1.54684033       1.96613083       5.78723973       0.00000000 NULL
P        1.00186725       3.32004322       2.83413119       0.00000000 NULL
P        1.62411285      -0.05450280       1.79930421       0.00000000 NULL
P        0.24991592       0.62558954       3.29186425       0.00000000 NULL
P       -2.51165181       3.23067833       4.11569712       0.00000000 NULL
P        5.68233100      -0.89873122       3.89467834       0.00000000 NULL
P        2.84710683       3.64669063       1.20097916       0.00000000 NULL
P        3.68705042      -0.44308122       4.77465918       0.00000000 NULL
10
Lattice="6.976294950433244 0.18891403043485128 0.37415588623656776 -2.6000812975774745 5.575072208606614 -0.8313329204025072 -1.3884946057155583 -2.638754721049935 6.342335206656127" Properties=species:S:1:pos:R:3:initial_magmoms:R:1:castep_labels:S:1 n_minim_iter=13 pbc="T T T"
P        4.26921751       1.92034479       1.05076972       0.00000000 NULL
P       -1.03037716       4.18906347       2.66386525       0.00000000 NULL
P        1.60164022       1.94658368       5.71336807       0.00000000 NULL
P        1.01406276       3.29055619       2.79643505       0.00000000 NULL
P        1.64417372      -0.06101771       1.78407860       0.00000000 NULL
P        0.26228330       0.62188862       3.25016253       0.00000000 NULL
P       -2.50281130       3.22050343       4.02853682       0.00000000 NULL
P        5.76446022      -0.91524232       3.89846364       0.00000000 NULL
P        2.87863538       3.62000074       1.19010361       0.00000000 NULL
P        3.75253678      -0.45320299       4.75008320       0.00000000 NULL
10
Lattice="7.029349521483003 0.18228774478004592 0.4260019205652085 -2.6294032860168803 5.568130866038581 -0.8621951371682763 -1.3322059415287322 -2.644751943963844 6.252298730781634" Properties=species:S:1:pos:R:3:initial_magmoms:R:1:castep_labels:S:1 n_minim_iter=14 pbc="T T T"
P        4.30905571       1.91318655       1.05974107       0.00000000 NULL
P       -0.99753618       4.17287773       2.61158327       0.00000000 NULL
P        1.67212171       1.93453109       5.63161112       0.00000000 NULL
P        1.03642584       3.26695059       2.75594932       0.00000000 NULL
P        1.66945289      -0.06590849       1.76834001       0.00000000 NULL
P        0.28090689       0.62098045       3.20357599       0.00000000 NULL
P       -2.48179427       3.21362132       3.93177439       0.00000000 NULL
P        5.85548583      -0.92452944       3.90380868       0.00000000 NULL
P        2.91721902       3.59903762       1.18363403       0.00000000 NULL
P        3.82842548      -0.45783659       4.72278389       0.00000000 NULL
10
Lattice="7.090864036747392 0.1796683777539814 0.49131312767627366 -2.657404491823672 5.565978898982109 -0.8984344947054095 -1.2621364739568606 -2.653794905346619 6.150026556187292" Properties=species:S:1:pos:R:3:initial_magmoms:R:1:castep_labels:S:1 n_minim_iter=15 pbc="T T T"
P        4.36095276       1.91010257       1.07467783       0.00000000 NULL
P       -0.95326609       4.16127209       2.55122857       0.00000000 NULL
P        1.76248776       1.92705630       5.54266406       0.00000000 NULL
P        1.07093922       3.24829885       2.71163659       0.00000000 NULL
P        1.70332539      -0.07051243       1.75306396       0.00000000 NULL
P        0.30713906       0.62117154       3.15250633       0.00000000 NULL
P       -2.45023193       3.20863149       3.82325221       0.00000000 NULL
P        5.96435403      -0.92995191       3.91496016       0.00000000 NULL
P        2.96595256       3.58330167       1.18150895       0.00000000 NULL
P        3.92154234      -0.46065811       4.69582794       0.00000000 NULL
10
Lattice="7.15703144362466 0.1829499096862318 0.5691590724890878 -2.6803010206497806 5.569430480002398 -0.939109215997958 -1.1792444343386148 -2.6662677079249666 6.045595839322844" Properties=species:S:1:pos:R:3:initial_magmoms:R:1:castep_labels:S:1 n_minim_iter=16 pbc="T T T"
P        4.42371254       1.91288450       1.09726006       0.00000000 NULL
P       -0.89573661       4.15553816       2.48842684       0.00000000 NULL
P        1.87155389       1.92578825       5.45668158       0.00000000 NULL
P        1.11794948       3.23624205       2.66869270       0.00000000 NULL
P        1.74540297      -0.07437250       1.74089104       0.00000000 NULL
P        0.34006416       0.62317027       3.10213187       0.00000000 NULL
P       -2.40656265       3.20611045       3.71121617       0.00000000 NULL
P        6.08743187      -0.92963376       3.93697195       0.00000000 NULL
P        3.02523516       3.57463097       1.18630118       0.00000000 NULL
P        4.02920142      -0.46046690       4.67605965       0.00000000 NULL
10
Lattice="7.225365815295338 0.19072612108366957 0.6546708667611735 -2.698751931860549 5.577978121268888 -0.983593400526097 -1.0886773645014047 -2.6829330548442005 5.946448850370387" Properties=species:S:1:pos:R:3:initial_magmoms:R:1:castep_labels:S:1 n_minim_iter=17 pbc="T T T"
P        4.49477413       1.92006551       1.12563102       0.00000000 NULL
P       -0.82949616       4.15433029       2.42591443       0.00000000 NULL
P        1.99201897       1.92835341       5.37842710       0.00000000 NULL
P        1.17311050       3.22948097       2.62879564       0.00000000 NULL
P        1.79419452      -0.07821591       1.73246735       0.00000000 NULL
P        0.37581007       0.62612059       3.05480051       0.00000000 NULL
P       -2.35621149       3.20466374       3.60109652       0.00000000 NULL
P        6.21874923      -0.92545719       3.96936129       0.00000000 NULL
P        3.09213344       3.57178449       1.19654338       0.00000000 NULL
P        4.14510947      -0.45935129       4.66514206       0.00000000 NULL
10
Lattice="7.295473891932655 0.19985819258480284 0.7425654842760847 -2.7163151344012872 5.592666762459578 -1.0283925959567553 -0.9959928838616986 -2.701417150376756 5.8507547069164065" Properties=species:S:1:pos:R:3:initial_magmoms:R:1:castep_labels:S:1 n_minim_iter=18 pbc="T T T"
P        4.57126155       1.92993101       1.15717236       0.00000000 NULL
P       -0.76168086       4.15881745       2.36448292       0.00000000 NULL
P        2.11625895       1.93523477       5.30565631       0.00000000 NULL
P        1.23082615       3.22864109       2.59118545       0.00000000 NULL
P        1.84774563      -0.08204465       1.72617259       0.00000000 NULL
P        0.41084664       0.63096956       3.00866290       0.00000000 NULL
P       -2.30679783       3.20658597       3.49391700       0.00000000 NULL
P        6.35345420      -0.91942696       4.00612383       0.00000000 NULL
P        3.16264090       3.57428830       1.21007079       0.00000000 NULL
P        4.26354221      -0.45800611       4.65819247       0.00000000 NULL
10
Lattice="7.368705546192279 0.2068155393102277 0.8316343733991908 -2.7377180471319438 5.610008439524634 -1.0786160771445463 -0.901748025183319 -2.7253532381663508 5.753073420258738" Properties=species:S:1:pos:R:3:initial_magmoms:R:1:castep_labels:S:1 n_minim_iter=19 pbc="T T T"
P        4.65140423       1.93784085       1.18813676       0.00000000 NULL
P       -0.69715588       4.16215868       2.29614421       0.00000000 NULL
P        2.24175476       1.93744676       5.22877256       0.00000000 NULL
P        1.28840127       3.22734844       2.54844528       0.00000000 NULL
P        1.90562147      -0.08818666       1.71962349       0.00000000 NULL
P        0.44417300       0.63381994       2.95822510       0.00000000 NULL
P       -2.26235599       3.20580066       3.38057053       0.00000000 NULL
P        6.49081796      -0.91792931       4.04234292       0.00000000 NULL
P        3.23407909       3.57623867       1.22075519       0.00000000 NULL
P        4.38417739      -0.46295207       4.64869599       0.00000000 NULL
10
Lattice="7.590415227629546 0.21923357628741524 1.0451342108028834 -2.812753781705816 5.671369535334914 -1.2132090763876355 -0.686124008557008 -2.8031246368661935 5.535525529877267" Properties=species:S:1:pos:R:3:initial_magmoms:R:1:castep_labels:S:1 n_minim_iter=20 pbc="T T T"
P        4.87735403       1.95700219       1.26194710       0.00000000 NULL
P       -0.55414794       4.17540689       2.12804811       0.00000000 NULL
P        2.54659341       1.93796559       5.04996961       0.00000000 NULL
P        1.42485217       3.22885954       2.44215721       0.00000000 NULL
P        2.06672695      -0.10950293       1.70782306       0.00000000 NULL
P        0.50681145       0.64026362       2.83415752       0.00000000 NULL
P       -2.19142049       3.20521787       3.10614656       0.00000000 NULL
P        6.85884684      -0.92609965       4.13975757       0.00000000 NULL
P        3.42468858       3.58414764       1.24309282       0.00000000 NULL
P        4.69664613      -0.49012799       4.63428029       0.00000000 NULL
10
Lattice="7.451314222442979 0.20274567274024544 1.0027274743493508 -2.775975276978064 5.644310553594658 -1.1191908699047273 -0.6989794237924868 -2.703453347352629 5.4141915758502615" Properties=species:S:1:pos:R:3:initial_magmoms:R:1:castep_labels:S:1 n_minim_iter=21 pbc="T T T"
P        4.81059865       1.94394157       1.24431828       0.00000000 NULL
P       -0.55897786       4.18615690       2.14789193       0.00000000 NULL
P        2.46088118       2.01293292       4.96823204       0.00000000 NULL
P        1.36272819       3.24650110       2.43646770       0.00000000 NULL
P        2.05785777      -0.10325895       1.66430545       0.00000000 NULL
P        0.40830055       0.70465221       2.77453479       0.00000000 NULL
P       -2.22749988       3.25377304       3.08468158       0.00000000 NULL
P        6.72624283      -0.87259159       4.05591623       0.00000000 NULL
P        3.36704246       3.55275177       1.25966111       0.00000000 NULL
P        4.60155944      -0.43399257       4.54246608       0.00000000 NULL
10
Lattice="7.59368619471585 0.20976112916399767 1.0668460792662786 -2.8252953439912525 5.742950314860411 -1.2595336494917195 -0.6550703127147072 -2.863999953439983 5.536736781657399" Properties=species:S:1:pos:R:3:initial_magmoms:R:1:castep_labels:S:1 n_minim_iter=22 pbc="T T T"
P        4.92351851       1.95819990       1.26450850       0.00000000 NULL
P       -0.53523776       4.19690730       2.09888437       0.00000000 NULL
P        2.56373774       1.94740736       5.01577003       0.00000000 NULL
P        1.42401151       3.24455595       2.42436153       0.00000000 NULL
P        2.10935094      -0.13305745       1.70081272       0.00000000 NULL
P        0.44813737       0.66416096       2.79989604       0.00000000 NULL
P       -2.22707360       3.22333503       3.05510271       0.00000000 NULL
P        6.87938502      -0.94749558       4.17798308       0.00000000 NULL
P        3.45381833       3.58446633       1.23956260       0.00000000 NULL
P        4.73176898      -0.52168664       4.64707745       0.00000000 NULL
10
Lattice="7.525180772398075 0.22332369374311237 1.0669229632754742 -2.7815051443939294 5.680904710856987 -1.2185502007239921 -0.6425115648842978 -2.8040106755153 5.453638540277149" Properties=species:S:1:pos:R:3:initial_magmoms:R:1:castep_labels:S:1 n_minim_iter=23 pbc="T T T"
P        4.89044315       1.95415560       1.26717278       0.00000000 NULL
P       -0.51113796       4.17213830       2.09402334       0.00000000 NULL
P        2.56254014       1.96495403       4.97027897       0.00000000 NULL
P        1.42964293       3.23312217       2.41502795       0.00000000 NULL
P        2.09266423      -0.12081363       1.68294058       0.00000000 NULL
P        0.45233234       0.67885200       2.76807421       0.00000000 NULL
P       -2.18822007       3.21279497       3.03000680       0.00000000 NULL
P        6.82443952      -0.90339247       4.13547507       0.00000000 NULL
P        3.43904548       3.56368092       1.24820593       0.00000000 NULL
P        4.69977254      -0.48232998       4.59626799       0.00000000 NULL
10
Lattice="7.544693884618505 0.2239318312766591 1.0685125170637055 -2.7886833033269114 5.681587600276389 -1.2163402737563442 -0.6457197716447203 -2.801336876411155 5.450430468086326" Properties=species:S:1:pos:R:3:initial_magmoms:R:1:castep_labels:S:1 n_minim_iter=24 pbc="T T T"
P        4.90707518       1.95379893       1.27007682       0.00000000 NULL
P       -0.51422170       4.17386568       2.09489772       0.00000000 NULL
P        2.56818183       1.96919378       4.96982166       0.00000000 NULL
P        1.43357480       3.23493067       2.41712113       0.00000000 NULL
P        2.09770684      -0.12094708       1.68210148       0.00000000 NULL
P        0.44947600       0.68347243       2.76545113       0.00000000 NULL
P       -2.19748974       3.21497442       3.02965258       0.00000000 NULL
P        6.84098771      -0.89968186       4.13655169       0.00000000 NULL
P        3.44910478       3.56398796       1.25031591       0.00000000 NULL
P        4.71059062      -0.47917383       4.59543101       0.00000000 NULL
10
Lattice="7.550545869913835 0.22640171022748617 1.071083620257625 -2.788127106442924 5.675756269918766 -1.2140514962397166 -0.6448412786897804 -2.7967422513152997 5.442521113016824" Properties=species:S:1:pos:R:3:initial_magmoms:R:1:castep_labels:S:1 n_minim_iter=25 pbc="T T T"
P        4.91708220       1.95246775       1.27326925       0.00000000 NULL
P       -0.51225109       4.17053037       2.09379379       0.00000000 NULL
P        2.57413645       1.97164838       4.96561001       0.00000000 NULL
P        1.43857834       3.23353642       2.41750021       0.00000000 NULL
P        2.09939646      -0.12077472       1.68014652       0.00000000 NULL
P        0.44811294       0.68762924       2.76006392       0.00000000 NULL
P       -2.19853697       3.21276907       3.02592657       0.00000000 NULL
P        6.84673944      -0.89328665       4.13603382       0.00000000 NULL
P        3.45622345       3.56106930       1.25223858       0.00000000 NULL
P        4.71598447      -0.47468700       4.59185432       0.00000000 NULL
