12
Lattice="4.84275 2.7477520852072214e-16 2.2326280588862463e-16 1.3548481726022268 5.570556716495797 2.3472433786202894e-15 0.2675571382539478 2.868087784008052 9.941034032865653" Properties=species:S:1:pos:R:3:initial_magmoms:R:1:castep_labels:S:1 n_minim_iter=1 pbc="T T T"
P        1.38810950       2.88810322       5.12429487       0.00000000 NULL
P        4.42445479       3.82316214       6.23916991       0.00000000 NULL
P        5.60328444       4.81295311       4.76863052       0.00000000 NULL
P        3.46442206       5.57026557       9.51861663       0.00000000 NULL
P        5.14612872       2.20454961       1.56039341       0.00000000 NULL
P        3.09879555       3.85769027       4.72702431       0.00000000 NULL
P        1.90229669       0.98703045       2.88897086       0.00000000 NULL
P        5.23821081       4.82540393       8.84347429       0.00000000 NULL
P        2.87002049       4.56820118       2.82603318       0.00000000 NULL
P        3.33107727       3.04792154       1.56704198       0.00000000 NULL
P        1.33335273       5.42963196       6.62209556       0.00000000 NULL
P        2.99145889       0.14927144       0.29748644       0.00000000 NULL
12
Lattice="4.850349267530865 -0.001234053490250123 0.0011092765257115624 1.3555546903387785 5.577793837322099 0.002279319715576366 0.26952321542645524 2.875437281119486 9.955182525529597" Properties=species:S:1:pos:R:3:initial_magmoms:R:1:castep_labels:S:1 n_minim_iter=2 pbc="T T T"
P        1.39054280       2.89307096       5.13240474       0.00000000 NULL
P        4.43199705       3.82937529       6.25013271       0.00000000 NULL
P        5.61187364       4.81997931       4.77754199       0.00000000 NULL
P        3.47029697       5.58030018       9.53359804       0.00000000 NULL
P        5.15432039       2.20661367       1.56434441       0.00000000 NULL
P        3.10379942       3.86384726       4.73515866       0.00000000 NULL
P        1.90574541       0.98909268       2.89343137       0.00000000 NULL
P        5.24743609       4.83361325       8.85809561       0.00000000 NULL
P        2.87389373       4.57483845       2.83191916       0.00000000 NULL
P        3.33574989       3.05168664       1.57110159       0.00000000 NULL
P        1.33561404       5.43917938       6.63337531       0.00000000 NULL
P        2.99620285       0.14901895       0.29868389       0.00000000 NULL
12
Lattice="5.0366445721708155 -0.03266745621837188 0.02919564770265582 1.3715167574218123 5.752338469977989 0.05965614436464758 0.3188543706450706 3.056465656922856 10.293382177889288" Properties=species:S:1:pos:R:3:initial_magmoms:R:1:castep_labels:S:1 n_minim_iter=3 pbc="T T T"
P        1.45033694       3.01419331       5.32717918       0.00000000 NULL
P        4.61732445       3.98031365       6.51491078       0.00000000 NULL
P        5.82202746       4.98975887       4.99354796       0.00000000 NULL
P        3.61448114       5.82493789       9.89357636       0.00000000 NULL
P        5.35511777       2.25510433       1.66112803       0.00000000 NULL
P        3.22641703       4.01328788       4.93151565       0.00000000 NULL
P        1.99054322       1.03942549       3.00052558       0.00000000 NULL
P        5.47418324       5.03327118       9.21041893       0.00000000 NULL
P        2.96815532       4.73552525       2.97503362       0.00000000 NULL
P        3.44987413       3.14209757       1.67049112       0.00000000 NULL
P        1.39092726       5.67206456       6.90533517       0.00000000 NULL
P        3.11249791       0.14234718       0.32848250       0.00000000 NULL
12
Lattice="5.12472801351939 -0.05888690951287518 0.06670025275716297 1.3659997965824302 5.7629784171596 0.10633436164564644 0.38518077920085025 3.1288476025626655 10.252140481341142" Properties=species:S:1:pos:R:3:initial_magmoms:R:1:castep_labels:S:1 n_minim_iter=4 pbc="T T T"
P        1.49576328       3.04340665       5.32502756       0.00000000 NULL
P        4.72928671       4.00909257       6.54180602       0.00000000 NULL
P        5.93367413       5.00853218       5.03434602       0.00000000 NULL
P        3.71612891       5.88350113       9.89200914       0.00000000 NULL
P        5.45401288       2.24073094       1.70439650       0.00000000 NULL
P        3.29910626       4.03949080       4.94871702       0.00000000 NULL
P        2.04242207       1.05353838       2.99931952       0.00000000 NULL
P        5.61430317       5.07578649       9.23031184       0.00000000 NULL
P        3.01592961       4.75698502       3.00684452       0.00000000 NULL
P        3.50599764       3.14138228       1.70850756       0.00000000 NULL
P        1.43614581       5.72768290       6.91479783       0.00000000 NULL
P        3.16859567       0.13456649       0.35325324       0.00000000 NULL
12
Lattice="5.217265440286984 -0.08953658809750469 0.1364139523884606 1.3566328853554102 5.736028039571374 0.16633529655420187 0.5152472375038174 3.189963361222032 10.126041603276285" Properties=species:S:1:pos:R:3:initial_magmoms:R:1:castep_labels:S:1 n_minim_iter=5 pbc="T T T"
P        1.57193667       3.05438977       5.28841244       0.00000000 NULL
P        4.88539166       4.01366155       6.54826178       0.00000000 NULL
P        6.07713250       4.99547093       5.07166053       0.00000000 NULL
P        3.87684203       5.90702117       9.82873340       0.00000000 NULL
P        5.56745195       2.20683663       1.76933098       0.00000000 NULL
P        3.40306984       4.03988796       4.94825056       0.00000000 NULL
P        2.11430990       1.06348262       2.98224687       0.00000000 NULL
P        5.81398447       5.08819856       9.21233526       0.00000000 NULL
P        3.08002746       4.75074105       3.03315169       0.00000000 NULL
P        3.57577075       3.11639937       1.75842491       0.00000000 NULL
P        1.52055965       5.75323928       6.88084736       0.00000000 NULL
P        3.22900710       0.12783197       0.39735256       0.00000000 NULL
12
Lattice="5.3219114759655755 -0.11260072345374418 0.24529294961826564 1.3593791382262648 5.697831300686352 0.21700578376458748 0.7308723773308998 3.208410510360318 10.012478984995326" Properties=species:S:1:pos:R:3:initial_magmoms:R:1:castep_labels:S:1 n_minim_iter=6 pbc="T T T"
P        1.69415149       3.03722708       5.26290785       0.00000000 NULL
P        5.11073721       3.99183980       6.59593410       0.00000000 NULL
P        6.28036433       4.96558058       5.14183071       0.00000000 NULL
P        4.12674403       5.88153991       9.78397935       0.00000000 NULL
P        5.71213344       2.16746046       1.87069729       0.00000000 NULL
P        3.56159527       4.01475677       4.97343539       0.00000000 NULL
P        2.21564009       1.06892429       2.97573306       0.00000000 NULL
P        6.10654921       5.06343150       9.24327406       0.00000000 NULL
P        3.17866904       4.73178895       3.06478423       0.00000000 NULL
P        3.67936600       3.07823912       1.83121053       0.00000000 NULL
P        1.66794888       5.74719689       6.85710423       0.00000000 NULL
P        3.29841306       0.13410130       0.46926998       0.00000000 NULL
12
Lattice="5.351480357798481 -0.10068743037662019 0.3205700703358048 1.3813552923295245 5.683033953804763 0.19792637138184624 0.8940879376417908 3.1281022706018606 9.920481885642904" Properties=species:S:1:pos:R:3:initial_magmoms:R:1:castep_labels:S:1 n_minim_iter=7 pbc="T T T"
P        1.78013606       2.98090301       5.22526802       0.00000000 NULL
P        5.24909192       3.94169049       6.60849903       0.00000000 NULL
P        6.40134684       4.93859934       5.14605039       0.00000000 NULL
P        4.29685362       5.78646797       9.70494144       0.00000000 NULL
P        5.78048909       2.15426088       1.92109398       0.00000000 NULL
P        3.66885358       3.96733957       4.96514016       0.00000000 NULL
P        2.27406674       1.06474225       2.95562156       0.00000000 NULL
P        6.28945521       4.99195174       9.23695630       0.00000000 NULL
P        3.24444726       4.71374361       3.03980859       0.00000000 NULL
P        3.75155524       3.05007032       1.85737143       0.00000000 NULL
P        1.78480387       5.69249816       6.80059109       0.00000000 NULL
P        3.31867863       0.16674660       0.52154628       0.00000000 NULL
12
Lattice="5.385965729642295 -0.08063104005827787 0.37867362417161227 1.4140738309327154 5.699281956291633 0.17465980288368993 1.027144507065715 3.0641570598572154 9.633793637405082" Properties=species:S:1:pos:R:3:initial_magmoms:R:1:castep_labels:S:1 n_minim_iter=8 pbc="T T T"
P        1.85005254       2.93742391       5.08382446       0.00000000 NULL
P        5.38117628       3.91811712       6.49174019       0.00000000 NULL
P        6.52114608       4.94883870       5.03625492       0.00000000 NULL
P        4.43998679       5.71457350       9.42498153       0.00000000 NULL
P        5.85562266       2.15768733       1.92075851       0.00000000 NULL
P        3.76723016       3.94232792       4.85231604       0.00000000 NULL
P        2.32717022       1.07865915       2.85830976       0.00000000 NULL
P        6.45743427       4.95029166       9.04559387       0.00000000 NULL
P        3.30620735       4.72951856       2.94990709       0.00000000 NULL
P        3.84003367       3.03123074       1.84294403       0.00000000 NULL
P        1.88203880       5.67180940       6.61241380       0.00000000 NULL
P        3.33647331       0.22789101       0.56325334       0.00000000 NULL
12
Lattice="5.436012927596195 -0.020566047307188706 0.3517008128839038 1.4971674871172282 5.784954842925009 0.153146656573473 1.0101137955990713 3.078008596255005 9.590213824979424" Properties=species:S:1:pos:R:3:initial_magmoms:R:1:castep_labels:S:1 n_minim_iter=9 pbc="T T T"
P        1.86317388       2.96645695       5.05325664       0.00000000 NULL
P        5.44480429       4.00112702       6.45562839       0.00000000 NULL
P        6.61592283       5.07046131       4.96429773       0.00000000 NULL
P        4.47828059       5.77372630       9.34089786       0.00000000 NULL
P        5.93592490       2.23722576       1.87394444       0.00000000 NULL
P        3.81885050       4.00518032       4.81442811       0.00000000 NULL
P        2.34943067       1.12282643       2.80447897       0.00000000 NULL
P        6.52644196       5.04271684       8.98694808       0.00000000 NULL
P        3.36691924       4.82975579       2.90127767       0.00000000 NULL
P        3.92676408       3.08753228       1.82305266       0.00000000 NULL
P        1.91951362       5.74984072       6.57913864       0.00000000 NULL
P        3.35682855       0.31087611       0.55901100       0.00000000 NULL
12
Lattice="5.3941689938684565 -0.014595475079898217 0.3568138084903219 1.4923287558336698 5.729617373314329 0.1583863407082909 1.02183377813801 3.055784915103568 9.446318950030697" Properties=species:S:1:pos:R:3:initial_magmoms:R:1:castep_labels:S:1 n_minim_iter=10 pbc="T T T"
P        1.85993344       2.94285959       4.98158396       0.00000000 NULL
P        5.42072439       3.97263409       6.37230877       0.00000000 NULL
P        6.57828112       5.02952333       4.90386352       0.00000000 NULL
P        4.46390198       5.72152765       9.20743079       0.00000000 NULL
P        5.89735208       2.22120581       1.85660307       0.00000000 NULL
P        3.79944611       3.97030557       4.75119168       0.00000000 NULL
P        2.33899337       1.11748649       2.75931385       0.00000000 NULL
P        6.49713198       5.00465631       8.86721473       0.00000000 NULL
P        3.34950209       4.79078514       2.86479529       0.00000000 NULL
P        3.90586719       3.05913946       1.80712691       0.00000000 NULL
P        1.92041940       5.70197637       6.48811015       0.00000000 NULL
P        3.32887602       0.32201697       0.56043453       0.00000000 NULL
12
Lattice="5.410460092258384 -0.0065559187591224055 0.3524386209230921 1.506134293873752 5.75017831745792 0.1608441558369968 1.018513983482227 3.0722276889951696 9.437165970981278" Properties=species:S:1:pos:R:3:initial_magmoms:R:1:castep_labels:S:1 n_minim_iter=11 pbc="T T T"
P        1.86385767       2.95657556       4.97720236       0.00000000 NULL
P        5.43745642       3.99660951       6.36664918       0.00000000 NULL
P        6.60092289       5.05773782       4.89495757       0.00000000 NULL
P        4.47332686       5.74625414       9.19493212       0.00000000 NULL
P        5.91940203       2.23657791       1.85025831       0.00000000 NULL
P        3.81104216       3.98866190       4.74712534       0.00000000 NULL
P        2.34668275       1.12757808       2.74999383       0.00000000 NULL
P        6.51609095       5.03315729       8.85796397       0.00000000 NULL
P        3.36211144       4.81523656       2.86013958       0.00000000 NULL
P        3.92329553       3.07334386       1.80654274       0.00000000 NULL
P        1.92753927       5.72889975       6.48560575       0.00000000 NULL
P        3.33624797       0.33614816       0.55984929       0.00000000 NULL
12
Lattice="5.414032500211981 0.0033168936280286573 0.34862215763030113 1.5184903171542574 5.757773213996822 0.16254692885911265 1.0167241583562827 3.0802055340004664 9.40500097156242" Properties=species:S:1:pos:R:3:initial_magmoms:R:1:castep_labels:S:1 n_minim_iter=12 pbc="T T T"
P        1.86601644       2.96345482       4.96090697       0.00000000 NULL
P        5.44498027       4.01217401       6.34642328       0.00000000 NULL
P        6.61118351       5.07521045       4.87542179       0.00000000 NULL
P        4.47709656       5.75691121       9.16056043       0.00000000 NULL
P        5.92883519       2.24847678       1.84054144       0.00000000 NULL
P        3.81610300       3.99786308       4.73206054       0.00000000 NULL
P        2.35029427       1.13518048       2.73399750       0.00000000 NULL
P        6.52396151       5.05058542       8.82834079       0.00000000 NULL
P        3.36935573       4.82925220       2.84864147       0.00000000 NULL
P        3.93314300       3.08132033       1.80233490       0.00000000 NULL
P        1.93403147       5.74211328       6.46726606       0.00000000 NULL
P        3.33569439       0.35132520       0.55892226       0.00000000 NULL
12
Lattice="5.4422675511644325 0.0857391319997385 0.31575097865049684 1.621198894044745 5.824878280921426 0.17339526754276696 0.9996213129682562 3.1432080517620604 9.183701593066582" Properties=species:S:1:pos:R:3:initial_magmoms:R:1:castep_labels:S:1 n_minim_iter=13 pbc="T T T"
P        1.88344730       3.02113637       4.84800697       0.00000000 NULL
P        5.50321289       4.14145115       6.20235186       0.00000000 NULL
P        6.69383788       5.22137841       4.73327965       0.00000000 NULL
P        4.50658709       5.84790444       8.91896732       0.00000000 NULL
P        6.00419486       2.35004770       1.76600855       0.00000000 NULL
P        3.85649804       4.07555732       4.62616981       0.00000000 NULL
P        2.37932327       1.19575232       2.61917337       0.00000000 NULL
P        6.58483126       5.19580838       8.61838770       0.00000000 NULL
P        3.43022173       4.94558385       2.76497447       0.00000000 NULL
P        4.01018593       3.15214349       1.77056702       0.00000000 NULL
P        1.98819599       5.85131891       6.34193658       0.00000000 NULL
P        3.33240185       0.47128273       0.54940372       0.00000000 NULL
12
Lattice="5.532357559545863 0.25386691797804506 0.23525623920818814 1.8397985844347804 5.979212060612638 0.2237996409967944 0.9389344159948091 3.33787869499275 9.151853607896147" Properties=species:S:1:pos:R:3:initial_magmoms:R:1:castep_labels:S:1 n_minim_iter=14 pbc="T T T"
P        1.92343477       3.19034705       4.84076476       0.00000000 NULL
P        5.62507739       4.45643889       6.15774560       0.00000000 NULL
P        6.88298111       5.55438665       4.65542387       0.00000000 NULL
P        4.56918955       6.12826829       8.84388855       0.00000000 NULL
P        6.18672894       2.58477520       1.68024953       0.00000000 NULL
P        3.94401330       4.27108053       4.61692374       0.00000000 NULL
P        2.44786959       1.31977601       2.52858516       0.00000000 NULL
P        6.71443979       5.56278054       8.54923081       0.00000000 NULL
P        3.57476767       5.20423124       2.72903093       0.00000000 NULL
P        4.15660979       3.33702301       1.77051447       0.00000000 NULL
P        2.10420651       6.13072697       6.38241382       0.00000000 NULL
P        3.35238571       0.67763958       0.51918458       0.00000000 NULL
12
Lattice="5.376679076569987 0.23307326498215358 0.23536692068918563 1.772325984872521 5.868404202595933 0.21277159646977126 0.918245629011016 3.2629383503259772 8.65114653455483" Properties=species:S:1:pos:R:3:initial_magmoms:R:1:castep_labels:S:1 n_minim_iter=15 pbc="T T T"
P        1.87105335       3.12763727       4.58167306       0.00000000 NULL
P        5.47126096       4.35656674       5.83142260       0.00000000 NULL
P        6.67969947       5.42477732       4.41841886       0.00000000 NULL
P        4.43698492       5.99027672       8.36701939       0.00000000 NULL
P        6.01295349       2.52058148       1.59766355       0.00000000 NULL
P        3.82277128       4.16821558       4.37324696       0.00000000 NULL
P        2.38761002       1.28250979       2.38709414       0.00000000 NULL
P        6.52580207       5.42824534       8.09436493       0.00000000 NULL
P        3.46403475       5.10143803       2.58078230       0.00000000 NULL
P        4.03039824       3.25988836       1.68173971       0.00000000 NULL
P        2.03660159       6.01226424       6.03932266       0.00000000 NULL
P        3.25143118       0.66608243       0.50051262       0.00000000 NULL
12
Lattice="5.511965480674828 0.23734722060615568 0.23233962288937793 1.8150911182340783 6.0137899592075605 0.2178509010812617 0.9220369567867733 3.3479887536905553 8.925254653720097" Properties=species:S:1:pos:R:3:initial_magmoms:R:1:castep_labels:S:1 n_minim_iter=16 pbc="T T T"
P        1.90848683       3.20514548       4.72525671       0.00000000 NULL
P        5.59416186       4.46487060       6.00935089       0.00000000 NULL
P        6.83604766       5.56099194       4.54466898       0.00000000 NULL
P        4.52625999       6.14142117       8.62301932       0.00000000 NULL
P        6.16403556       2.58289283       1.63736180       0.00000000 NULL
P        3.90926456       4.26904481       4.50887414       0.00000000 NULL
P        2.44429422       1.31487315       2.45946258       0.00000000 NULL
P        6.67215548       5.56285068       8.34003125       0.00000000 NULL
P        3.54261926       5.23109069       2.65448286       0.00000000 NULL
P        4.12717090       3.34164406       1.73064410       0.00000000 NULL
P        2.07642371       6.16848737       6.23125396       0.00000000 NULL
P        3.33207098       0.68105603       0.50833468       0.00000000 NULL
12
Lattice="5.501619454283451 0.23947843261320506 0.23034593332301292 1.8146481348899215 6.011428975939489 0.21952430274115445 0.9186349670245024 3.3505656041867566 8.907094737407729" Properties=species:S:1:pos:R:3:initial_magmoms:R:1:castep_labels:S:1 n_minim_iter=17 pbc="T T T"
P        1.90536193       3.20763738       4.71662748       0.00000000 NULL
P        5.58415538       4.46772280       5.99700926       0.00000000 NULL
P        6.82373224       5.56153859       4.53549384       0.00000000 NULL
P        4.51686147       6.14263329       8.60504675       0.00000000 NULL
P        6.15425580       2.58539161       1.63265921       0.00000000 NULL
P        3.90135570       4.26775700       4.50071916       0.00000000 NULL
P        2.44109988       1.31550077       2.45287807       0.00000000 NULL
P        6.65911228       5.56468165       8.32213845       0.00000000 NULL
P        3.53724248       5.23183626       2.64861352       0.00000000 NULL
P        4.11999819       3.34198943       1.72796631       0.00000000 NULL
P        2.07362081       6.17092611       6.22123504       0.00000000 NULL
P        3.32496783       0.68434444       0.50626308       0.00000000 NULL
12
Lattice="5.498387298178445 0.24170136326189737 0.22767007223640526 1.8163008901349662 6.017936617054256 0.22119842594915015 0.9142799926135123 3.3580423321828246 8.899324699216947" Properties=species:S:1:pos:R:3:initial_magmoms:R:1:castep_labels:S:1 n_minim_iter=18 pbc="T T T"
P        1.90368744       3.21486827       4.71344555       0.00000000 NULL
P        5.57985892       4.47691211       5.99101411       0.00000000 NULL
P        6.81893701       5.56994162       4.53045032       0.00000000 NULL
P        4.51084227       6.15258513       8.59626620       0.00000000 NULL
P        6.15241794       2.59163073       1.62874167       0.00000000 NULL
P        3.89721532       4.27201450       4.49748667       0.00000000 NULL
P        2.44086560       1.31781827       2.44867554       0.00000000 NULL
P        6.65264896       5.57402298       8.31286467       0.00000000 NULL
P        3.53554375       5.24042876       2.64495211       0.00000000 NULL
P        4.11752402       3.34712712       1.72686571       0.00000000 NULL
P        2.07203808       6.18304378       6.21859784       0.00000000 NULL
P        3.32193279       0.68875340       0.50403127       0.00000000 NULL
12
Lattice="5.491616084384871 0.25154289237035055 0.21365396779050583 1.8257271106586694 6.059531943552706 0.2296039211008714 0.8909626856127223 3.400582393544121 8.863090061287563" Properties=species:S:1:pos:R:3:initial_magmoms:R:1:castep_labels:S:1 n_minim_iter=19 pbc="T T T"
P        1.89660994       3.25568548       4.69895241       0.00000000 NULL
P        5.56502683       4.52832422       5.96251401       0.00000000 NULL
P        6.80389955       5.61891405       4.50593679       0.00000000 NULL
P        4.48431101       6.21094639       8.55441577       0.00000000 NULL
P        6.15296864       2.62551165       1.60884265       0.00000000 NULL
P        3.88085440       4.29855979       4.48220235       0.00000000 NULL
P        2.44319436       1.33050851       2.42823029       0.00000000 NULL
P        6.62802312       5.62710262       8.26798645       0.00000000 NULL
P        3.53100344       5.29062216       2.62706499       0.00000000 NULL
P        4.11056890       3.37692582       1.72147184       0.00000000 NULL
P        2.06420817       6.25361756       6.20741220       0.00000000 NULL
P        3.31236014       0.71099449       0.49237240       0.00000000 NULL
