8
Lattice="4.169679999999998 3.683111298906257e-17 0.0 -0.08465050000190139 5.8078331325331165 0.0 0.0 0.0 7.588739999999998" Properties=species:S:1:pos:R:3:initial_magmoms:R:1:castep_labels:S:1 n_minim_iter=1 pbc="T T T"
P        3.05597124       2.95801944       4.73592015       0.00000000 NULL
P        1.02905826       2.84981370       4.73592015       0.00000000 NULL
P        3.92036551       3.90428562       1.31246044       0.00000000 NULL
P        0.16466399       1.90354752       1.31246044       0.00000000 NULL
P        1.08325365       0.72243927       2.91368155       0.00000000 NULL
P        3.00177585       5.08539387       2.91368155       0.00000000 NULL
P        1.08657858       0.17585306       0.18201289       0.00000000 NULL
P        2.99845092       5.63198008       0.18201289       0.00000000 NULL
8
Lattice="4.172510944092727 -0.001359791383206477 0.0 -0.08660198843306316 5.807399879794525 0.0 0.0 0.0 7.586135236822507" Properties=species:S:1:pos:R:3:initial_magmoms:R:1:castep_labels:S:1 n_minim_iter=2 pbc="T T T"
P        3.05714240       2.95694204       4.73434595       0.00000000 NULL
P        1.02876656       2.84909806       4.73434595       0.00000000 NULL
P        3.92169781       3.90282967       1.31195947       0.00000000 NULL
P        0.16421115       1.90321042       1.31195947       0.00000000 NULL
P        1.08363033       0.72210240       2.91277315       0.00000000 NULL
P        3.00227863       5.08393770       2.91277315       0.00000000 NULL
P        1.08707423       0.17553276       0.18185785       0.00000000 NULL
P        2.99883472       5.63050733       0.18185785       0.00000000 NULL
8
Lattice="4.270953735269197 -0.04983017989293441 0.0 -0.15611359599724592 5.792202955274274 0.0 0.0 0.0 7.494587838142629" Properties=species:S:1:pos:R:3:initial_magmoms:R:1:castep_labels:S:1 n_minim_iter=3 pbc="T T T"
P        3.09698936       2.91856728       4.67897272       0.00000000 NULL
P        1.01785078       2.82380551       4.67897272       0.00000000 NULL
P        3.96678196       3.85104909       1.29438289       0.00000000 NULL
P        0.14805818       1.89132369       1.29438289       0.00000000 NULL
P        1.09633476       0.71014422       2.88079714       0.00000000 NULL
P        3.01850538       5.03222857       2.88079714       0.00000000 NULL
P        1.10407897       0.16414317       0.17647335       0.00000000 NULL
P        3.01076117       5.57822961       0.17647335       0.00000000 NULL
8
Lattice="4.289229943154333 -0.10723520659496152 0.0 -0.2364425196051959 5.760872832473475 0.0 0.0 0.0 7.382630539458162" Properties=species:S:1:pos:R:3:initial_magmoms:R:1:castep_labels:S:1 n_minim_iter=4 pbc="T T T"
P        3.06995994       2.86641184       4.60986578       0.00000000 NULL
P        0.98282749       2.78722579       4.60986578       0.00000000 NULL
P        3.92744503       3.78043705       1.27359648       0.00000000 NULL
P        0.12534240       1.87320059       1.27359648       0.00000000 NULL
P        1.08600846       0.69469463       2.84075984       0.00000000 NULL
P        2.96677897       4.95894300       2.84075984       0.00000000 NULL
P        1.10128583       0.14917722       0.17150072       0.00000000 NULL
P        2.95150159       5.50446041       0.17150072       0.00000000 NULL
8
Lattice="4.315432362632546 -0.2070050004576346 0.0 -0.3759410812050601 5.729617376799548 0.0 0.0 0.0 7.269170432089015" Properties=species:S:1:pos:R:3:initial_magmoms:R:1:castep_labels:S:1 n_minim_iter=5 pbc="T T T"
P        3.01814004       2.78642350       4.53871650       0.00000000 NULL
P        0.92135124       2.73618888       4.53871650       0.00000000 NULL
P        3.85450831       3.67117102       1.25213048       0.00000000 NULL
P        0.08498297       1.85144136       1.25213048       0.00000000 NULL
P        1.06787757       0.67095178       2.80224762       0.00000000 NULL
P        2.87161371       4.85166061       2.80224762       0.00000000 NULL
P        1.09776225       0.12344363       0.16591412       0.00000000 NULL
P        2.84172904       5.39916876       0.16591412       0.00000000 NULL
8
Lattice="4.363835087589185 -0.3729740648349517 0.0 -0.6080974927126909 5.689779647359841 0.0 0.0 0.0 7.188405139567875" Properties=species:S:1:pos:R:3:initial_magmoms:R:1:castep_labels:S:1 n_minim_iter=6 pbc="T T T"
P        2.93372704       2.65927152       4.48511679       0.00000000 NULL
P        0.82201055       2.65753407       4.48511679       0.00000000 NULL
P        3.73819684       3.49597084       1.23514168       0.00000000 NULL
P        0.01754075       1.82083475       1.23514168       0.00000000 NULL
P        1.03869964       0.63554126       2.77994452       0.00000000 NULL
P        2.71703795       4.68126432       2.77994452       0.00000000 NULL
P        1.09670600       0.08062887       0.16148735       0.00000000 NULL
P        2.65903159       5.23617672       0.16148735       0.00000000 NULL
8
Lattice="4.503988936027332 -0.5676224528696773 0.0 -0.8820632288290642 5.6170113556719485 0.0 0.0 0.0 7.145685995033782" Properties=species:S:1:pos:R:3:initial_magmoms:R:1:castep_labels:S:1 n_minim_iter=7 pbc="T T T"
P        2.89203703       2.49969386       4.45103147       0.00000000 NULL
P        0.72988867       2.54969505       4.45103147       0.00000000 NULL
P        3.67957343       3.27485785       1.22198367       0.00000000 NULL
P       -0.05764773       1.77453106       1.22198367       0.00000000 NULL
P        1.01850445       0.60019818       2.77541670       0.00000000 NULL
P        2.60342126       4.44919073       2.77541670       0.00000000 NULL
P        1.11918188       0.02843813       0.16178394       0.00000000 NULL
P        2.50274382       5.02095078       0.16178394       0.00000000 NULL
8
Lattice="4.531133751327801 -0.5798177050128274 0.0 -0.8996007404952406 5.596368496132057 0.0 0.0 0.0 7.12957966915909" Properties=species:S:1:pos:R:3:initial_magmoms:R:1:castep_labels:S:1 n_minim_iter=8 pbc="T T T"
P        2.90184919       2.48231888       4.43996300       0.00000000 NULL
P        0.72968382       2.53423192       4.43996300       0.00000000 NULL
P        3.69263456       3.25083549       1.21847804       0.00000000 NULL
P       -0.06110155       1.76571531       1.21847804       0.00000000 NULL
P        1.02035368       0.59745662       2.77039966       0.00000000 NULL
P        2.61117933       4.41909418       2.77039966       0.00000000 NULL
P        1.12504144       0.02443112       0.16196770       0.00000000 NULL
P        2.50649157       4.99211968       0.16196770       0.00000000 NULL
8
Lattice="4.722362431056093 -0.6582857509955592 0.0 -1.0127789509711902 5.465192421178939 0.0 0.0 0.0 7.022295649900106" Properties=species:S:1:pos:R:3:initial_magmoms:R:1:castep_labels:S:1 n_minim_iter=9 pbc="T T T"
P        2.97587907       2.37099872       4.36668566       0.00000000 NULL
P        0.73370440       2.43590796       4.36668566       0.00000000 NULL
P        3.79169585       3.09694833       1.19534434       0.00000000 NULL
P       -0.08211237       1.70995834       1.19534434       0.00000000 NULL
P        1.03545080       0.57956108       2.73672977       0.00000000 NULL
P        2.67413268       4.22734560       2.73672977       0.00000000 NULL
P        1.16673920      -0.00124492       0.16277644       0.00000000 NULL
P        2.54284428       4.80815160       0.16277644       0.00000000 NULL
8
Lattice="5.063744879088519 -0.7608316516147149 0.0 -1.162542883488599 5.11542774325479 0.0 0.0 0.0 6.74995667397577" Properties=species:S:1:pos:R:3:initial_magmoms:R:1:castep_labels:S:1 n_minim_iter=10 pbc="T T T"
P        3.11806384       2.14604845       4.18495228       0.00000000 NULL
P        0.78313815       2.20854765       4.18495228       0.00000000 NULL
P        3.99460512       2.78122756       1.13623040       0.00000000 NULL
P       -0.09340313       1.57336854       1.13623040       0.00000000 NULL
P        1.05516442       0.54757643       2.65368967       0.00000000 NULL
P        2.84603757       3.80701967       2.65368967       0.00000000 NULL
P        1.23986640      -0.04124690       0.15850819       0.00000000 NULL
P        2.66133560       4.39584300       0.15850819       0.00000000 NULL
8
Lattice="4.768563855335381 -0.7304546221445092 0.0 -1.1142389514178486 5.308741850516174 0.0 0.0 0.0 6.975945417070482" Properties=species:S:1:pos:R:3:initial_magmoms:R:1:castep_labels:S:1 n_minim_iter=11 pbc="T T T"
P        2.91241853       2.27801625       4.32686119       0.00000000 NULL
P        0.74190637       2.30027098       4.32686119       0.00000000 NULL
P        3.74361576       2.93842561       1.16739970       0.00000000 NULL
P       -0.08929086       1.63986163       1.16739970       0.00000000 NULL
P        0.99167486       0.58699627       2.75468061       0.00000000 NULL
P        2.66265004       3.99129096       2.75468061       0.00000000 NULL
P        1.17050483      -0.02748278       0.15674485       0.00000000 NULL
P        2.48382007       4.60577001       0.15674485       0.00000000 NULL
8
Lattice="4.890138444834986 -0.757269012152703 0.0 -1.1540561202430146 5.3470122227137376 0.0 0.0 0.0 7.02761234604771" Properties=species:S:1:pos:R:3:initial_magmoms:R:1:castep_labels:S:1 n_minim_iter=12 pbc="T T T"
P        2.98026654       2.28413767       4.35747333       0.00000000 NULL
P        0.75581579       2.30560555       4.35747333       0.00000000 NULL
P        3.82721837       2.94010264       1.17252524       0.00000000 NULL
P       -0.09113605       1.64964058       1.17252524       0.00000000 NULL
P        1.01083950       0.59314155       2.78331452       0.00000000 NULL
P        2.72524283       3.99660167       2.78331452       0.00000000 NULL
P        1.20008878      -0.03318678       0.15462948       0.00000000 NULL
P        2.53599355       4.62293000       0.15462948       0.00000000 NULL
8
Lattice="4.825539870339037 -0.7428049812125206 0.0 -1.1325981235250728 5.318230286710571 0.0 0.0 0.0 7.013244184658236" Properties=species:S:1:pos:R:3:initial_magmoms:R:1:castep_labels:S:1 n_minim_iter=13 pbc="T T T"
P        2.94227382       2.28232953       4.34765905       0.00000000 NULL
P        0.75066793       2.29309578       4.34765905       0.00000000 NULL
P        3.77814921       2.93535654       1.16856533       0.00000000 NULL
P       -0.08520747       1.64006878       1.16856533       0.00000000 NULL
P        0.99570472       0.59594572       2.78084901       0.00000000 NULL
P        2.69723703       3.97947959       2.78084901       0.00000000 NULL
P        1.18306718      -0.03014377       0.15355624       0.00000000 NULL
P        2.50987457       4.60556909       0.15355624       0.00000000 NULL
8
Lattice="4.827530877934828 -0.743690376443529 0.0 -1.1338717866230879 5.316714538864748 0.0 0.0 0.0 7.021867773807301" Properties=species:S:1:pos:R:3:initial_magmoms:R:1:castep_labels:S:1 n_minim_iter=14 pbc="T T T"
P        2.94255723       2.28326705       4.35233833       0.00000000 NULL
P        0.75110186       2.28975712       4.35233833       0.00000000 NULL
P        3.77692956       2.93420391       1.16849528       0.00000000 NULL
P       -0.08327047       1.63882026       1.16849528       0.00000000 NULL
P        0.99390337       0.59858834       2.78764785       0.00000000 NULL
P        2.69975572       3.97443583       2.78764785       0.00000000 NULL
P        1.18281648      -0.03028664       0.15253918       0.00000000 NULL
P        2.51084261       4.60331081       0.15253918       0.00000000 NULL
8
Lattice="4.827213628741858 -0.7476511978702364 0.0 -1.1393822657512869 5.3089233281299935 0.0 0.0 0.0 7.070881451824825" Properties=species:S:1:pos:R:3:initial_magmoms:R:1:castep_labels:S:1 n_minim_iter=15 pbc="T T T"
P        2.93721548       2.28944664       4.37901261       0.00000000 NULL
P        0.75061588       2.27182550       4.37901261       0.00000000 NULL
P        3.75992116       2.92929575       1.16816673       0.00000000 NULL
P       -0.07208979       1.63197638       1.16816673       0.00000000 NULL
P        0.98121960       0.61370851       2.82625672       0.00000000 NULL
P        2.70661176       3.94756362       2.82625672       0.00000000 NULL
P        1.17802889      -0.03066807       0.14664376       0.00000000 NULL
P        2.50980247       4.59194021       0.14664376       0.00000000 NULL
8
Lattice="4.808108383234786 -0.772816754948884 0.0 -1.174046817375197 5.346393280925103 0.0 0.0 0.0 7.215036191841435" Properties=species:S:1:pos:R:3:initial_magmoms:R:1:castep_labels:S:1 n_minim_iter=16 pbc="T T T"
P        2.91131422       2.31844803       4.46116167       0.00000000 NULL
P        0.72274734       2.25512850       4.46116167       0.00000000 NULL
P        3.68237961       2.94227502       1.17282196       0.00000000 NULL
P       -0.04831805       1.63130151       1.17282196       0.00000000 NULL
P        0.94433526       0.65223811       2.92947109       0.00000000 NULL
P        2.68972631       3.92133842       2.92947109       0.00000000 NULL
P        1.15550589      -0.03209681       0.13032479       0.00000000 NULL
P        2.47855567       4.60567334       0.13032479       0.00000000 NULL
