12
Lattice="5.729829999999999 3.1320217257930285e-16 0.0 -2.864915 4.962178339366189 0.0 0.0 0.0 9.19236" Properties=species:S:1:pos:R:3:initial_magmoms:R:1:castep_labels:S:1 n_minim_iter=1 pbc="T T T"
P       -0.34204163       1.97073310       0.13847187       0.00000000 NULL
P        1.32923089       3.68059505       3.20259187       0.00000000 NULL
P       -0.98718926       4.27302853       6.26671187       0.00000000 NULL
P       -0.69966582       4.64696340       1.14173615       0.00000000 NULL
P       -0.80964044       2.03276827       4.20585615       0.00000000 NULL
P        1.50930627       3.24462502       7.26997615       0.00000000 NULL
P       -0.62667237       3.37705959       2.69554926       0.00000000 NULL
P        0.25363179       2.73093435       5.75966926       0.00000000 NULL
P        0.37304058       3.81636274       8.82378926       0.00000000 NULL
P        2.60686494       3.59528429       4.77228264       0.00000000 NULL
P        1.31279000       0.45996912       7.83640264       0.00000000 NULL
P        4.67509006       0.90692494       1.70816264       0.00000000 NULL
12
Lattice="5.734325242365727 5.825999233636612e-16 -1.108858367562139e-61 -2.8671626211828642 4.966071333451078 -2.6868890725068796e-46 6.987073486260911e-62 2.3079429102188924e-46 9.211593304086522" Properties=species:S:1:pos:R:3:initial_magmoms:R:1:castep_labels:S:1 n_minim_iter=2 pbc="T T T"
P       -0.34224042       1.97208330       0.13859665       0.00000000 NULL
P        1.33040860       3.68364079       3.20912775       0.00000000 NULL
P       -0.98816817       4.27641859       6.27965885       0.00000000 NULL
P       -0.70032447       4.65100740       1.14406647       0.00000000 NULL
P       -0.81056570       2.03406885       4.21459758       0.00000000 NULL
P        1.51089018       3.24706642       7.28512868       0.00000000 NULL
P       -0.62727906       3.37955515       2.70121038       0.00000000 NULL
P        0.25402154       2.73305416       5.77174148       0.00000000 NULL
P        0.37325753       3.81953337       8.84227258       0.00000000 NULL
P        2.60906579       3.59803069       4.78247006       0.00000000 NULL
P        1.31380637       0.46050191       7.85300116       0.00000000 NULL
P        4.67861571       0.90753874       1.71193896       0.00000000 NULL
12
Lattice="5.8028944925831505 -3.838021512767604e-16 -8.1979412020613e-48 -2.9014472462915752 5.025454046057819 -8.868315816473634e-47 -1.3169134482690815e-47 1.4183915013966888e-45 9.515867042310557" Properties=species:S:1:pos:R:3:initial_magmoms:R:1:castep_labels:S:1 n_minim_iter=3 pbc="T T T"
P       -0.34519374       1.99241600       0.14042759       0.00000000 NULL
P        1.34856125       3.73029950       3.31238327       0.00000000 NULL
P       -1.00336750       4.32819260       6.48433895       0.00000000 NULL
P       -0.71046747       4.71312681       1.18088682       0.00000000 NULL
P       -0.82500656       2.05360777       4.35284250       0.00000000 NULL
P        1.53547404       3.28417352       7.52479818       0.00000000 NULL
P       -0.63663005       3.41741065       2.79076828       0.00000000 NULL
P        0.26019784       2.76541092       5.96272396       0.00000000 NULL
P        0.37643222       3.86808652       9.13467964       0.00000000 NULL
P        2.64276491       3.63981326       4.94382730       0.00000000 NULL
P        1.32934129       0.46879492       8.11578298       0.00000000 NULL
P        4.73223554       0.91684587       1.77187162       0.00000000 NULL
12
Lattice="5.789267949213791 -1.3264066841895053e-16 7.506810303142387e-49 -2.894633974606896 5.013653113334183 4.823530280659828e-47 1.631779812671705e-48 2.7290931574451208e-45 9.583541947358409" Properties=species:S:1:pos:R:3:initial_magmoms:R:1:castep_labels:S:1 n_minim_iter=4 pbc="T T T"
P       -0.34345023       1.98438271       0.13918233       0.00000000 NULL
P        1.34783326       3.72402513       3.33369631       0.00000000 NULL
P       -1.00438302       4.31889839       6.52821030       0.00000000 NULL
P       -0.70982277       4.70732685       1.18861637       0.00000000 NULL
P       -0.82711928       2.04526513       4.38313035       0.00000000 NULL
P        1.53694205       3.27471424       7.57764433       0.00000000 NULL
P       -0.63614967       3.40662198       2.81057028       0.00000000 NULL
P        0.26248763       2.75942035       6.00508426       0.00000000 NULL
P        0.37366204       3.86126390       9.19959824       0.00000000 NULL
P        2.63792298       3.62982060       4.98194480       0.00000000 NULL
P        1.32678961       0.46959802       8.17645878       0.00000000 NULL
P        4.71918933       0.91423450       1.78743082       0.00000000 NULL
12
Lattice="5.759695045099696 5.403396905064862e-16 1.240522695532942e-47 -2.879847522549849 4.988042227107695 8.286319427254442e-46 2.091096796231077e-47 1.846389683028366e-45 9.625087209642945" Properties=species:S:1:pos:R:3:initial_magmoms:R:1:castep_labels:S:1 n_minim_iter=5 pbc="T T T"
P       -0.34070990       1.97020747       0.13731934       0.00000000 NULL
P        1.34395276       3.70787506       3.34568175       0.00000000 NULL
P       -1.00324285       4.29800193       6.55404415       0.00000000 NULL
P       -0.70719166       4.68910752       1.19320305       0.00000000 NULL
P       -0.82744288       2.03104252       4.40156545       0.00000000 NULL
P        1.53463454       3.25593442       7.60992786       0.00000000 NULL
P       -0.63407876       3.38602602       2.82242829       0.00000000 NULL
P        0.26450235       2.74590090       6.03079069       0.00000000 NULL
P        0.36957641       3.84415754       9.23915309       0.00000000 NULL
P        2.62581259       3.60960698       5.00690023       0.00000000 NULL
P        1.32077741       0.46921692       8.21526264       0.00000000 NULL
P        4.69295257       0.90921833       1.79853783       0.00000000 NULL
12
Lattice="5.615352993606687 -3.779494458055157e-17 6.803760520376705e-47 -2.807676496803344 4.863038343680389 -8.19634638466516e-45 1.1299586624818398e-46 -1.3208793998210322e-43 9.791728894503596" Properties=species:S:1:pos:R:3:initial_magmoms:R:1:castep_labels:S:1 n_minim_iter=6 pbc="T T T"
P       -0.32824230       1.90242658       0.12907428       0.00000000 NULL
P        1.32424790       3.62755889       3.39298392       0.00000000 NULL
P       -0.99600560       4.19609122       6.65689355       0.00000000 NULL
P       -0.69331446       4.59644009       1.21225267       0.00000000 NULL
P       -0.82630016       1.96439037       4.47616230       0.00000000 NULL
P        1.51961462       3.16524623       7.74007193       0.00000000 NULL
P       -0.62404310       3.28736858       2.86850526       0.00000000 NULL
P        0.27275334       2.67891688       6.13241489       0.00000000 NULL
P        0.35128976       3.75979123       9.39632452       0.00000000 NULL
P        2.56562315       3.51205623       5.10860563       0.00000000 NULL
P        1.29101151       0.46586671       8.37251526       0.00000000 NULL
P        4.56639484       0.88511541       1.84469600       0.00000000 NULL
12
Lattice="5.579828368438268 -1.973942975747583e-16 -1.2364425130067309e-45 -2.7899141842191346 4.832273115824618 -3.015165958272691e-44 -2.163425536939076e-45 -2.897671838560406e-43 9.87668102501175" Properties=species:S:1:pos:R:3:initial_magmoms:R:1:castep_labels:S:1 n_minim_iter=7 pbc="T T T"
P       -0.32546429       1.88377501       0.12776534       0.00000000 NULL
P        1.32124932       3.60852527       3.41999235       0.00000000 NULL
P       -0.99578502       4.17224596       6.71221935       0.00000000 NULL
P       -0.68944458       4.57444541       1.22355856       0.00000000 NULL
P       -0.82694945       1.94797389       4.51578557       0.00000000 NULL
P        1.51639404       3.14212694       7.80801257       0.00000000 NULL
P       -0.62304268       3.26239757       2.89083287       0.00000000 NULL
P        0.27611636       2.66150354       6.18305988       0.00000000 NULL
P        0.34692633       3.74064513       9.47528689       0.00000000 NULL
P        2.55081958       3.48809059       5.15712697       0.00000000 NULL
P        1.28364352       0.46502926       8.44935398       0.00000000 NULL
P        4.53527946       0.87915327       1.86489996       0.00000000 NULL
12
Lattice="5.542598682110436 7.363254321384044e-16 -3.3138072569852327e-45 -2.771299341055219 4.800031261689789 2.4188280551778096e-44 -5.812866947031027e-45 -3.43876068182515e-43 9.936262109444007" Properties=species:S:1:pos:R:3:initial_magmoms:R:1:castep_labels:S:1 n_minim_iter=8 pbc="T T T"
P       -0.32279354       1.86549445       0.12666701       0.00000000 NULL
P        1.31713053       3.58773664       3.43875438       0.00000000 NULL
P       -0.99433699       4.14683144       6.75084175       0.00000000 NULL
P       -0.68501391       4.54967683       1.23185973       0.00000000 NULL
P       -0.82632941       1.93195340       4.54394710       0.00000000 NULL
P        1.51134333       3.11843230       7.85603447       0.00000000 NULL
P       -0.62148761       3.23701121       2.90581085       0.00000000 NULL
P        0.27870921       2.64330160       6.21789822       0.00000000 NULL
P        0.34277841       3.71974972       9.52998559       0.00000000 NULL
P        2.53483435       3.46340063       5.19164733       0.00000000 NULL
P        1.27578858       0.46353063       8.50373470       0.00000000 NULL
P        4.50327510       0.87310001       1.87955996       0.00000000 NULL
12
Lattice="5.489217931378965 -6.741467775711326e-16 -6.210468359814888e-45 -2.7446089656894825 4.753802175483251 6.165076436883562e-44 -1.0884020640205316e-44 -4.82277980869044e-43 10.0462018113009" Properties=species:S:1:pos:R:3:initial_magmoms:R:1:castep_labels:S:1 n_minim_iter=9 pbc="T T T"
P       -0.31905415       1.83847578       0.12534866       0.00000000 NULL
P        1.31196932       3.55825528       3.47408260       0.00000000 NULL
P       -0.99291516       4.11087329       6.82281654       0.00000000 NULL
P       -0.67844159       4.51460923       1.24727000       0.00000000 NULL
P       -0.82593651       1.90894991       4.59600394       0.00000000 NULL
P        1.50437811       3.08404522       7.94473787       0.00000000 NULL
P       -0.61984827       3.20015060       2.93371404       0.00000000 NULL
P        0.28312139       2.61692253       6.28244798       0.00000000 NULL
P        0.33672689       3.69053123       9.63118192       0.00000000 NULL
P        2.51192491       3.42796716       5.25427790       0.00000000 NULL
P        1.26454883       0.46140721       8.60301184       0.00000000 NULL
P        4.45735315       0.86442781       1.90554396       0.00000000 NULL
12
Lattice="5.342645927094875 -3.200605600390033e-16 -1.632918319780586e-44 -2.671322963547438 4.626867096289628 -2.266759886110949e-44 -2.871001647497186e-44 -5.069152018650932e-43 10.401824367396891" Properties=species:S:1:pos:R:3:initial_magmoms:R:1:castep_labels:S:1 n_minim_iter=10 pbc="T T T"
P       -0.30944295       1.76336160       0.12285793       0.00000000 NULL
P        1.29892850       3.47720084       3.59013272       0.00000000 NULL
P       -0.98948554       4.01317176       7.05740751       0.00000000 NULL
P       -0.65917522       4.41754219       1.29812944       0.00000000 NULL
P       -0.82479318       1.84723352       4.76540423       0.00000000 NULL
P        1.48396840       2.98895849       8.23267902       0.00000000 NULL
P       -0.61652510       3.09851679       3.02360561       0.00000000 NULL
P        0.29619126       2.54368230       6.49088040       0.00000000 NULL
P        0.32033384       3.61153511       9.95815518       0.00000000 NULL
P        2.44851054       3.33100874       5.45445088       0.00000000 NULL
P        1.23365247       0.45496796       8.92172567       0.00000000 NULL
P        4.33180588       0.84089040       1.98717610       0.00000000 NULL
12
Lattice="5.2779075394353026 8.744422177372863e-17 -3.0296011339521326e-44 -2.638953769717652 4.570802007976393 -1.1668095684078892e-43 -5.424339611236235e-44 -6.838438478205468e-43 10.83087500109554" Properties=species:S:1:pos:R:3:initial_magmoms:R:1:castep_labels:S:1 n_minim_iter=11 pbc="T T T"
P       -0.30661239       1.72122764       0.12566174       0.00000000 NULL
P        1.30163310       3.44465407       3.73595341       0.00000000 NULL
P       -0.99502071       3.97572231       7.34624507       0.00000000 NULL
P       -0.64781680       4.37939222       1.35964282       0.00000000 NULL
P       -0.82980274       1.82008009       4.96993448       0.00000000 NULL
P        1.47761954       2.94213171       8.58022615       0.00000000 NULL
P       -0.62116549       3.04891616       3.13528105       0.00000000 NULL
P        0.30909767       2.50839883       6.74557272       0.00000000 NULL
P        0.31206783       3.58428903      10.35586439       0.00000000 NULL
P        2.42102024       3.28698214       5.68677038       0.00000000 NULL
P        1.22078739       0.45317396       9.29706205       0.00000000 NULL
P        4.27505369       0.83064591       2.07647871       0.00000000 NULL
12
Lattice="5.172990388676424 -3.384766222314598e-16 -3.452912513619338e-44 -2.5864951943382124 4.479941090126522 -1.3046394379689098e-43 -6.137596302525913e-44 -6.397898973892825e-43 10.913797967961196" Properties=species:S:1:pos:R:3:initial_magmoms:R:1:castep_labels:S:1 n_minim_iter=12 pbc="T T T"
P       -0.30126007       1.67618239       0.12695433       0.00000000 NULL
P        1.28550870       3.38095102       3.76488698       0.00000000 NULL
P       -0.98424863       3.90274877       7.40281964       0.00000000 NULL
P       -0.63130597       4.29952151       1.37520676       0.00000000 NULL
P       -0.82134667       1.78345333       5.01313942       0.00000000 NULL
P        1.45265264       2.87690735       8.65107207       0.00000000 NULL
P       -0.61500979       2.98159016       3.15188836       0.00000000 NULL
P        0.31186727       2.45653191       6.78982102       0.00000000 NULL
P        0.30314252       3.52176012      10.42775367       0.00000000 NULL
P        2.37367668       3.21934141       5.73222136       0.00000000 NULL
P        1.19812060       0.44599360       9.37015401       0.00000000 NULL
P        4.18768830       0.81460608       2.09428870       0.00000000 NULL
12
Lattice="5.169707278717449 2.4357666444822203e-16 -3.9443771136553264e-44 -2.5848536393587254 4.477097833498632 -1.2572800472086146e-43 -7.070680760916229e-44 -7.107756035305983e-43 11.063456556917039" Properties=species:S:1:pos:R:3:initial_magmoms:R:1:castep_labels:S:1 n_minim_iter=13 pbc="T T T"
P       -0.30210302       1.66717914       0.12945459       0.00000000 NULL
P        1.29208566       3.38187937       3.81727344       0.00000000 NULL
P       -0.98998264       3.90513716       7.50509229       0.00000000 NULL
P       -0.62882572       4.30168267       1.39734171       0.00000000 NULL
P       -0.82609997       1.78167745       5.08516056       0.00000000 NULL
P        1.45492569       2.87083555       8.77297941       0.00000000 NULL
P       -0.62009919       2.97555138       3.19012630       0.00000000 NULL
P        0.31800015       2.45230050       6.87794515       0.00000000 NULL
P        0.30209904       3.52634379      10.56576400       0.00000000 NULL
P        2.37317078       3.21606680       5.81177294       0.00000000 NULL
P        1.19792634       0.44719278       9.49959179       0.00000000 NULL
P        4.18346380       0.81383825       2.12395409       0.00000000 NULL
12
Lattice="5.134914565653261 -4.913295151121551e-16 -4.0774728708842725e-44 -2.567457282826631 4.446966460118464 -8.789414189047339e-44 -7.275431155812514e-44 -6.76141715322785e-43 11.106046641351957" Properties=species:S:1:pos:R:3:initial_magmoms:R:1:castep_labels:S:1 n_minim_iter=14 pbc="T T T"
P       -0.30082444       1.64941788       0.13067563       0.00000000 NULL
P        1.28943172       3.36173591       3.83269118       0.00000000 NULL
P       -0.98860728       3.88277913       7.53470673       0.00000000 NULL
P       -0.62238727       4.27686799       1.40567274       0.00000000 NULL
P       -0.82522540       1.76952928       5.10768829       0.00000000 NULL
P        1.44761268       2.84753566       8.80970383       0.00000000 NULL
P       -0.62028914       2.95186591       3.19823347       0.00000000 NULL
P        0.32121099       2.43384735       6.90024902       0.00000000 NULL
P        0.29907816       3.50821966      10.60226456       0.00000000 NULL
P        2.35801349       3.19322018       5.83464514       0.00000000 NULL
P        1.19049803       0.44548949       9.53666069       0.00000000 NULL
P        4.15386033       0.80825679       2.13262960       0.00000000 NULL
12
Lattice="5.074478787092989 -3.9495567922510327e-16 -4.2248430852919243e-44 -2.537239393546495 4.394627540587777 -1.0848217229438558e-43 -7.390850744075766e-44 -6.399501061018169e-43 11.254259620983259" Properties=species:S:1:pos:R:3:initial_magmoms:R:1:castep_labels:S:1 n_minim_iter=15 pbc="T T T"
P       -0.29931434       1.61378908       0.13412950       0.00000000 NULL
P        1.28931423       3.32851918       3.88554937       0.00000000 NULL
P       -0.98999988       3.84694682       7.63696924       0.00000000 NULL
P       -0.60981254       4.23687582       1.43171931       0.00000000 NULL
P       -0.82709643       1.74807648       5.18313919       0.00000000 NULL
P        1.43690897       2.80430278       8.93455906       0.00000000 NULL
P       -0.62423593       2.90826577       3.23087441       0.00000000 NULL
P        0.33072532       2.39989048       6.98229428       0.00000000 NULL
P        0.29351061       3.48109883      10.73371416       0.00000000 NULL
P        2.33259327       3.15291776       5.91355276       0.00000000 NULL
P        1.17767528       0.44362615       9.66497263       0.00000000 NULL
P        4.10144963       0.79808364       2.16213288       0.00000000 NULL
12
Lattice="4.8368001858752105 1.0066932354779723e-17 -4.462559180491231e-44 -2.418400092937606 4.188791833997229 -1.5470464212256362e-43 -7.310314150238523e-44 -5.834633574100115e-43 11.568437637778922" Properties=species:S:1:pos:R:3:initial_magmoms:R:1:castep_labels:S:1 n_minim_iter=16 pbc="T T T"
P       -0.29122111       1.49052707       0.14038314       0.00000000 NULL
P        1.27317634       3.19132342       3.99652902       0.00000000 NULL
P       -0.98195523       3.69573318       7.85267490       0.00000000 NULL
P       -0.56525855       4.07055389       1.49525629       0.00000000 NULL
P       -0.82417370       1.66398662       5.35140217       0.00000000 NULL
P        1.38943226       2.64304316       9.20754805       0.00000000 NULL
P       -0.62967189       2.74595409       3.29345613       0.00000000 NULL
P        0.35517005       2.27050294       7.14960201       0.00000000 NULL
P        0.27450185       3.36112665      11.00574789       0.00000000 NULL
P        2.23200082       2.99791098       6.08017239       0.00000000 NULL
P        1.12453272       0.43401393       9.93631827       0.00000000 NULL
P        3.89866675       0.75686694       2.22402651       0.00000000 NULL
12
Lattice="4.905925161790014 -3.852465082608448e-16 -4.16451404855878e-44 -2.4529625808950075 4.248655819175436 -1.5784431964203459e-43 -6.24034569726705e-44 -5.659401993680565e-43 12.06874077987148" Properties=species:S:1:pos:R:3:initial_magmoms:R:1:castep_labels:S:1 n_minim_iter=17 pbc="T T T"
P       -0.29998216       1.48224427       0.14269374       0.00000000 NULL
P        1.31929247       3.24774151       4.16560733       0.00000000 NULL
P       -1.01931030       3.76732586       8.18852092       0.00000000 NULL
P       -0.56911288       4.15044085       1.56955491       0.00000000 NULL
P       -0.85686819       1.68056918       5.59246850       0.00000000 NULL
P        1.42598107       2.66630161       9.61538210       0.00000000 NULL
P       -0.66618273       2.77251421       3.42926888       0.00000000 NULL
P        0.38498621       2.28546755       7.45218247       0.00000000 NULL
P        0.28119652       3.43932988      11.47509606       0.00000000 NULL
P        2.27269956       3.04188685       6.34387101       0.00000000 NULL
P        1.13522410       0.44727213      10.36678460       0.00000000 NULL
P        3.95096408       0.75949684       2.32095742       0.00000000 NULL
12
Lattice="4.783727620455194 -4.527628020217085e-16 -4.04405802509661e-44 -2.3918638102275973 4.142829644099483 -1.8474680062503614e-43 -6.09679397916311e-44 -5.042129646533952e-43 11.70566037713316" Properties=species:S:1:pos:R:3:initial_magmoms:R:1:castep_labels:S:1 n_minim_iter=18 pbc="T T T"
P       -0.29240941       1.44216095       0.13437744       0.00000000 NULL
P        1.28912050       3.16851519       4.03626423       0.00000000 NULL
P       -0.99671108       3.67498315       7.93815102       0.00000000 NULL
P       -0.55324567       4.05044115       1.52574155       0.00000000 NULL
P       -0.83929828       1.63848427       5.42762834       0.00000000 NULL
P        1.39254396       2.59673388       9.32951514       0.00000000 NULL
P       -0.65281852       2.70139581       3.32552098       0.00000000 NULL
P        0.37879568       2.22677431       7.22740777       0.00000000 NULL
P        0.27402285       3.35748917      11.12929457       0.00000000 NULL
P        2.21766295       2.96607002       6.15421794       0.00000000 NULL
P        1.10620416       0.43751744      10.05610473       0.00000000 NULL
P        3.85172433       0.73924219       2.25233115       0.00000000 NULL
12
Lattice="4.778734710326601 -2.671026787671857e-16 -4.082031312081369e-44 -2.389367355163301 4.1385056570893095 -1.9097663561622576e-43 -6.155463992792003e-44 -4.645478198471963e-43 11.738647117412265" Properties=species:S:1:pos:R:3:initial_magmoms:R:1:castep_labels:S:1 n_minim_iter=19 pbc="T T T"
P       -0.29266125       1.43636414       0.13230779       0.00000000 NULL
P        1.29177015       3.16687151       4.04519016       0.00000000 NULL
P       -0.99910890       3.67377567       7.95807253       0.00000000 NULL
P       -0.55216722       4.05022020       1.53183888       0.00000000 NULL
P       -0.84214262       1.63520472       5.44472125       0.00000000 NULL
P        1.39430984       2.59158640       9.35760362       0.00000000 NULL
P       -0.65655186       2.69667438       3.33508479       0.00000000 NULL
P        0.38225478       2.22157788       7.24796716       0.00000000 NULL
P        0.27429709       3.35875907      11.16084953       0.00000000 NULL
P        2.21701639       2.96365691       6.17201876       0.00000000 NULL
P        1.10362434       0.43816406      10.08490114       0.00000000 NULL
P        3.84746133       0.73668469       2.25913639       0.00000000 NULL
12
Lattice="4.761761300827243 -2.3454065259911686e-16 -4.100384308414041e-44 -2.380880650413622 4.123806253274029 -1.6207464762177693e-43 -6.165905624624644e-44 -3.59860188942074e-43 11.753605931627227" Properties=species:S:1:pos:R:3:initial_magmoms:R:1:castep_labels:S:1 n_minim_iter=20 pbc="T T T"
P       -0.29254739       1.42375420       0.12762740       0.00000000 NULL
P        1.29414705       3.15857569       4.04549604       0.00000000 NULL
P       -1.00159965       3.66528263       7.96336468       0.00000000 NULL
P       -0.54935425       4.04300516       1.53721073       0.00000000 NULL
P       -0.84578740       1.62654894       5.45507938       0.00000000 NULL
P        1.39514165       2.57805841       9.37294802       0.00000000 NULL
P       -0.66206908       2.68375665       3.33981636       0.00000000 NULL
P        0.38771376       2.20855929       7.25768500       0.00000000 NULL
P        0.27435533       3.35529658      11.17555365       0.00000000 NULL
P        2.21213937       2.95447736       6.18083149       0.00000000 NULL
P        1.09703917       0.43853021      10.09870013       0.00000000 NULL
P        3.83346341       0.73079869       2.26296285       0.00000000 NULL
12
Lattice="4.722162270373886 4.192471652368293e-16 -3.9829238915101435e-44 -2.361081135186944 4.089512486936188 -1.2577775271218777e-43 -5.756489415196144e-44 -2.3145005466014404e-43 11.832816781172832" Properties=species:S:1:pos:R:3:initial_magmoms:R:1:castep_labels:S:1 n_minim_iter=21 pbc="T T T"
P       -0.29426766       1.37951938       0.10410121       0.00000000 NULL
P        1.31351614       3.14490953       4.04837347       0.00000000 NULL
P       -1.01924848       3.65459607       7.99264573       0.00000000 NULL
P       -0.54212548       4.04140695       1.56296027       0.00000000 NULL
P       -0.86781721       1.59931458       5.50723253       0.00000000 NULL
P        1.40994269       2.53830345       9.45150479       0.00000000 NULL
P       -0.69124804       2.64721655       3.36626872       0.00000000 NULL
P        0.41414837       2.16726585       7.31054098       0.00000000 NULL
P        0.27709967       3.36454258      11.25481325       0.00000000 NULL
P        2.20691336       2.93723479       6.22753790       0.00000000 NULL
P        1.07498565       0.44262565      10.17181016       0.00000000 NULL
P        3.80134439       0.70965206       2.28326564       0.00000000 NULL
12
Lattice="4.7458624178754505 6.136746365733697e-16 -5.582420470827282e-44 -2.372931208937726 4.110037416745982 -2.507592020704923e-43 -1.0117794676492426e-43 -3.417327787892873e-43 11.448222050568546" Properties=species:S:1:pos:R:3:initial_magmoms:R:1:castep_labels:S:1 n_minim_iter=22 pbc="T T T"
P       -0.30121170       1.34883985       0.04797933       0.00000000 NULL
P        1.35540749       3.17476051       3.86405334       0.00000000 NULL
P       -1.05419578       3.69647449       7.68012736       0.00000000 NULL
P       -0.54759519       4.10638282       1.53415552       0.00000000 NULL
P       -0.90950303       1.58261466       5.35022953       0.00000000 NULL
P        1.45709822       2.53107736       9.16630355       0.00000000 NULL
P       -0.73922735       2.64426016       3.27336048       0.00000000 NULL
P        0.45254841       2.14771768       7.08943450       0.00000000 NULL
P        0.28667894       3.42809700      10.90550852       0.00000000 NULL
P        2.23402357       2.96914437       6.03936775       0.00000000 NULL
P        1.05749618       0.45014897       9.85544176       0.00000000 NULL
P        3.82727388       0.69074407       2.22329373       0.00000000 NULL
12
Lattice="4.713178958690738 2.067262859074889e-16 -2.416619834572407e-44 -2.3565894793453697 4.08173271080847 7.681807615353603e-43 -1.667288248199656e-44 -1.615072628922168e-42 12.080827155733722" Properties=species:S:1:pos:R:3:initial_magmoms:R:1:castep_labels:S:1 n_minim_iter=23 pbc="T T T"
P       -0.30126510       1.33748574       0.04328488       0.00000000 NULL
P        1.34892541       3.15208661       4.07022726       0.00000000 NULL
P       -1.04766030       3.67389308       8.09716965       0.00000000 NULL
P       -0.54437009       4.08609401       1.62207862       0.00000000 NULL
P       -0.90988669       1.56724738       5.64902101       0.00000000 NULL
P        1.45425678       2.51012404       9.67596339       0.00000000 NULL
P       -0.73741437       2.62436064       3.45843194       0.00000000 NULL
P        0.45253368       2.13093282       7.48537432       0.00000000 NULL
P        0.28488069       3.40817197      11.51231671       0.00000000 NULL
P        2.22022922       2.95062592       6.37309526       0.00000000 NULL
P        1.04774735       0.44746195      10.40003765       0.00000000 NULL
P        3.80179187       0.68364485       2.34615288       0.00000000 NULL
12
Lattice="4.676084938360054 4.6431208739590797e-17 -5.564622045977495e-44 -2.3380424691800274 4.049608346873602 1.2643934975142846e-42 -9.853463176207886e-44 -2.4427558674214874e-43 11.826636059399302" Properties=species:S:1:pos:R:3:initial_magmoms:R:1:castep_labels:S:1 n_minim_iter=24 pbc="T T T"
P       -0.29917047       1.32512838       0.03659550       0.00000000 NULL
P        1.34003286       3.12795493       3.97880752       0.00000000 NULL
P       -1.04086239       3.64613339       7.92101954       0.00000000 NULL
P       -0.54052157       4.05658973       1.59032918       0.00000000 NULL
P       -0.90480650       1.55320807       5.53254120       0.00000000 NULL
P        1.44532808       2.48941890       9.47475322       0.00000000 NULL
P       -0.73428874       2.60253224       3.38652377       0.00000000 NULL
P        0.45132781       2.11242953       7.32873579       0.00000000 NULL
P        0.28296093       3.38425493      11.27094781       0.00000000 NULL
P        2.20360349       2.92914888       6.24153769       0.00000000 NULL
P        1.03756585       0.44380216      10.18374971       0.00000000 NULL
P        3.77295807       0.67665731       2.29932567       0.00000000 NULL
12
Lattice="4.7015023440319075 -5.672802512379677e-16 -3.828764605411345e-44 -2.3507511720159537 4.071620465883721 1.388658696835897e-42 -5.483815878639067e-44 -1.1381698013185897e-42 11.854299606551553" Properties=species:S:1:pos:R:3:initial_magmoms:R:1:castep_labels:S:1 n_minim_iter=25 pbc="T T T"
P       -0.30138866       1.33086152       0.03390484       0.00000000 NULL
P        1.34888562       3.14517947       3.98533804       0.00000000 NULL
P       -1.04749696       3.66719995       7.93677124       0.00000000 NULL
P       -0.54422115       4.08093072       1.59503738       0.00000000 NULL
P       -0.91132793       1.55984576       5.54647058       0.00000000 NULL
P        1.45554908       2.50246445       9.49790378       0.00000000 NULL
P       -0.74030568       2.61600039       3.39552520       0.00000000 NULL
P        0.45538123       2.12249674       7.34695840       0.00000000 NULL
P        0.28492446       3.40474380      11.29839160       0.00000000 NULL
P        2.21601427       2.94648221       6.25684513       0.00000000 NULL
P        1.04176676       0.44588355      10.20827833       0.00000000 NULL
P        3.79447248       0.67925471       2.30541193       0.00000000 NULL
