5
Lattice="2.9465199999999983 -1.1767090715091589e-15 1.6186333228780006e-16 -0.4217444457554351 3.9755623702030434 1.858957844704766e-15 -0.4107365472082654 -0.5022424015256509 9.571395099383217" Properties=species:S:1:pos:R:3:initial_magmoms:R:1:castep_labels:S:1 n_minim_iter=1 pbc="T T T"
P        0.03797288       1.07647053       1.52281087       0.00000000 NULL
P        1.77531234       1.38988558       9.18883409       0.00000000 NULL
P        1.50393543       1.77241493       2.72362662       0.00000000 NULL
P        0.96693680       1.48569046       6.85817642       0.00000000 NULL
P        0.29238245       0.01679175       8.88216947       0.00000000 NULL
5
Lattice="2.9509508420170483 5.054687228405824e-06 -0.0004783195166140789 -0.4223718257787751 3.977128090071444 0.0009379000723846623 -0.41290881568321913 -0.5003477797617627 9.576462027309686" Properties=species:S:1:pos:R:3:initial_magmoms:R:1:castep_labels:S:1 n_minim_iter=2 pbc="T T T"
P        0.03775435       1.07700077       1.52386826       0.00000000 NULL
P        1.77645778       1.39280937       9.19365557       0.00000000 NULL
P        1.50575387       1.77386999       2.72542430       0.00000000 NULL
P        0.96727261       1.48773907       6.86207094       0.00000000 NULL
P        0.29145694       0.01848462       8.88668769       0.00000000 NULL
5
Lattice="3.141813847044696 0.00012912593869527747 -0.021641754246636644 -0.4495232312577964 4.042539646864825 0.04129459022394839 -0.5082824499973252 -0.41876280818682254 9.789113311697694" Properties=species:S:1:pos:R:3:initial_magmoms:R:1:castep_labels:S:1 n_minim_iter=3 pbc="T T T"
P        0.02791448       1.09936450       1.56854425       0.00000000 NULL
P        1.82397713       1.51746561       9.39556320       0.00000000 NULL
P        1.58343900       1.83547653       2.80082335       0.00000000 NULL
P        0.98032213       1.57495808       7.02560091       0.00000000 NULL
P        0.25017890       0.09125748       9.07579739       0.00000000 NULL
5
Lattice="3.200791136184773 0.007262427276251472 -0.03837392649217524 -0.4483402967274462 4.0463579025019305 0.06928775393178238 -0.57207193927032 -0.3587392994138123 9.767042649624802" Properties=species:S:1:pos:R:3:initial_magmoms:R:1:castep_labels:S:1 n_minim_iter=4 pbc="T T T"
P        0.02029682       1.10617151       1.57827719       0.00000000 NULL
P        1.80968416       1.59026558       9.36797652       0.00000000 NULL
P        1.60149759       1.86076034       2.79846885       0.00000000 NULL
P        0.96259102       1.61965449       7.02019191       0.00000000 NULL
P        0.21158752       0.14759710       9.04786539       0.00000000 NULL
5
Lattice="3.246949576083685 0.02253854191933904 -0.054983978268693876 -0.43433595231917055 4.0275904234531295 0.10129985392644537 -0.6350657892720818 -0.287426903346359 9.673598954421058" Properties=species:S:1:pos:R:3:initial_magmoms:R:1:castep_labels:S:1 n_minim_iter=5 pbc="T T T"
P        0.01466409       1.10843196       1.58229211       0.00000000 NULL
P        1.79159240       1.67030713       9.27060166       0.00000000 NULL
P        1.61770986       1.88253944       2.77628026       0.00000000 NULL
P        0.94357694       1.66362625       6.96843890       0.00000000 NULL
P        0.17510439       0.21680696       8.95168282       0.00000000 NULL
5
Lattice="3.301114350848321 0.050216820000142964 -0.06852680846288893 -0.4047440853379587 3.976922834885445 0.14296504586297437 -0.6913262035821943 -0.18974023399156012 9.50629215216242" Properties=species:S:1:pos:R:3:initial_magmoms:R:1:castep_labels:S:1 n_minim_iter=6 pbc="T T T"
P        0.01425179       1.10442440       1.58628431       0.00000000 NULL
P        1.79241688       1.77410026       9.10231726       0.00000000 NULL
P        1.64743521       1.90322504       2.73912995       0.00000000 NULL
P        0.93683726       1.71291370       6.87572880       0.00000000 NULL
P        0.15566879       0.31413298       8.78172913       0.00000000 NULL
5
Lattice="3.4048086258250208 0.12107468360048705 -0.07234162465720052 -0.32398190770657065 3.886046619926769 0.20470610274881887 -0.730250753586299 -0.042087727921778624 9.25180315913786" Properties=species:S:1:pos:R:3:initial_magmoms:R:1:castep_labels:S:1 n_minim_iter=7 pbc="T T T"
P        0.03541571       1.09319163       1.61028204       0.00000000 NULL
P        1.86921706       1.95488941       8.84647724       0.00000000 NULL
P        1.73136242       1.94294367       2.69539869       0.00000000 NULL
P        0.97624427       1.78598348       6.75244794       0.00000000 NULL
P        0.19572091       0.47434810       8.50924104       0.00000000 NULL
5
Lattice="3.399564536271625 0.16835146558076008 -0.0906139150770295 -0.2594435841699041 3.9045783698360252 0.21183462612965434 -0.7969334084675305 -0.0410083345484088 9.484592670751535" Properties=species:S:1:pos:R:3:initial_magmoms:R:1:castep_labels:S:1 n_minim_iter=8 pbc="T T T"
P        0.05048452       1.09385745       1.69407820       0.00000000 NULL
P        1.83228223       2.02386282       9.02875495       0.00000000 NULL
P        1.71859559       1.97516460       2.76202134       0.00000000 NULL
P        0.93207767       1.79711014       6.93384061       0.00000000 NULL
P        0.17756626       0.50444717       8.67685397       0.00000000 NULL
5
Lattice="3.3595630844429607 0.22185960342322414 -0.06571901983072534 -0.18152273875326733 3.837539939056447 0.22374674938735487 -0.7196100300698253 -0.0037077131025026835 9.479096266456862" Properties=species:S:1:pos:R:3:initial_magmoms:R:1:castep_labels:S:1 n_minim_iter=9 pbc="T T T"
P        0.07522343       1.07993404       1.72574143       0.00000000 NULL
P        1.92152037       2.07666113       9.03268874       0.00000000 NULL
P        1.74641693       1.98124001       2.78708523       0.00000000 NULL
P        0.98463508       1.80068867       6.96157087       0.00000000 NULL
P        0.27184230       0.56684495       8.64926152       0.00000000 NULL
5
Lattice="3.4199947348028963 0.2213251207272177 -0.08979089798889493 -0.19089365162027755 3.8659796036172653 0.23006457886400333 -0.8061373586384986 -0.0003010522157928391 9.645695427250697" Properties=species:S:1:pos:R:3:initial_magmoms:R:1:castep_labels:S:1 n_minim_iter=10 pbc="T T T"
P        0.06473321       1.08677994       1.76099587       0.00000000 NULL
P        1.88386562       2.09921364       9.17231407       0.00000000 NULL
P        1.74614845       1.99470235       2.82801549       0.00000000 NULL
P        0.94301197       1.81279978       7.07354524       0.00000000 NULL
P        0.21634697       0.57308261       8.78694351       0.00000000 NULL
5
Lattice="3.3963584093318935 0.2265089701915816 -0.09447111231027025 -0.18051625528538406 3.850592015521987 0.22541089491578864 -0.818929203496538 -0.011990269908641934 9.649177476713296" Properties=species:S:1:pos:R:3:initial_magmoms:R:1:castep_labels:S:1 n_minim_iter=11 pbc="T T T"
P        0.06229331       1.08069472       1.76560409       0.00000000 NULL
P        1.85943060       2.08603362       9.16651522       0.00000000 NULL
P        1.73096963       1.98520274       2.82447656       0.00000000 NULL
P        0.92461120       1.79719463       7.07414708       0.00000000 NULL
P        0.20384796       0.56528557       8.78268924       0.00000000 NULL
