4
Lattice="2.324730000000001 -7.512791107273708e-17 0.0 -0.2117212636044591 5.395867873376603 0.0 0.0 0.0 7.30078" Properties=species:S:1:pos:R:3:initial_magmoms:R:1:castep_labels:S:1 n_minim_iter=1 pbc="T T T"
P        0.44606584       4.24773349       4.79301902       0.00000000 NULL
P        0.44606584       4.24773349       2.50776098       0.00000000 NULL
P        1.42652706       0.77451262       2.63449376       0.00000000 NULL
P        1.42652706       0.77451262       4.66628624       0.00000000 NULL
4
Lattice="2.3276020869264844 -0.00021376736081698362 0.0 -0.21247900420567514 5.402375799679115 0.0 0.0 0.0 7.30534503676101" Properties=species:S:1:pos:R:3:initial_magmoms:R:1:castep_labels:S:1 n_minim_iter=2 pbc="T T T"
P        0.44624597       4.25252180       4.79605723       0.00000000 NULL
P        0.44624597       4.25252180       2.50928781       0.00000000 NULL
P        1.42819861       0.77559130       2.63585684       0.00000000 NULL
P        1.42819861       0.77559130       4.66948820       0.00000000 NULL
4
Lattice="2.5659219030792895 -0.01937620031944012 0.0 -0.27866102491131545 5.94155802667443 0.0 0.0 0.0 7.67075937256872" Properties=species:S:1:pos:R:3:initial_magmoms:R:1:castep_labels:S:1 n_minim_iter=3 pbc="T T T"
P        0.45890572       4.64787728       5.03922793       0.00000000 NULL
P        0.45890572       4.64787728       2.63153144       0.00000000 NULL
P        1.56611013       0.86502400       2.74425561       0.00000000 NULL
P        1.56611013       0.86502400       4.92650376       0.00000000 NULL
4
Lattice="2.5702086790919445 -0.07125804038563878 0.0 -0.3994729710982076 6.104615564223796 0.0 0.0 0.0 7.5412288050702845" Properties=species:S:1:pos:R:3:initial_magmoms:R:1:castep_labels:S:1 n_minim_iter=4 pbc="T T T"
P        0.37051438       4.75934311       4.94546782       0.00000000 NULL
P        0.37051438       4.75934311       2.59576098       0.00000000 NULL
P        1.54587122       0.85913603       2.69554749       0.00000000 NULL
P        1.54587122       0.85913603       4.84568132       0.00000000 NULL
4
Lattice="2.5275739714046996 -0.12259655321969076 0.0 -0.5147505120957601 6.206019692386468 0.0 0.0 0.0 7.4570931663198685" Properties=species:S:1:pos:R:3:initial_magmoms:R:1:castep_labels:S:1 n_minim_iter=5 pbc="T T T"
P        0.27461930       4.82191716       4.88119561       0.00000000 NULL
P        0.27461930       4.82191716       2.57589756       0.00000000 NULL
P        1.49651412       0.84523916       2.65949004       0.00000000 NULL
P        1.49651412       0.84523916       4.79760313       0.00000000 NULL
4
Lattice="2.4554849972441763 -0.22556398521464643 0.0 -0.7471800370747718 6.421913943108819 0.0 0.0 0.0 7.406430720302619" Properties=species:S:1:pos:R:3:initial_magmoms:R:1:castep_labels:S:1 n_minim_iter=6 pbc="T T T"
P        0.08724410       4.95094835       4.83103263       0.00000000 NULL
P        0.08724410       4.95094835       2.57539809       0.00000000 NULL
P        1.40337456       0.82548367       2.62236856       0.00000000 NULL
P        1.40337456       0.82548367       4.78406216       0.00000000 NULL
4
Lattice="2.52017923110237 -0.28294785204905765 0.0 -0.8862641063827345 6.35481742876707 0.0 0.0 0.0 7.364966860654121" Properties=species:S:1:pos:R:3:initial_magmoms:R:1:castep_labels:S:1 n_minim_iter=7 pbc="T T T"
P        0.00432090       4.87856479       4.79698118       0.00000000 NULL
P        0.00432090       4.87856479       2.56798568       0.00000000 NULL
P        1.41443998       0.78432908       2.60029008       0.00000000 NULL
P        1.41443998       0.78432908       4.76467678       0.00000000 NULL
4
Lattice="2.4642766097629654 -0.2717957937089612 0.0 -0.855288119086088 6.400260153339555 0.0 0.0 0.0 7.394626026102219" Properties=species:S:1:pos:R:3:initial_magmoms:R:1:castep_labels:S:1 n_minim_iter=8 pbc="T T T"
P        0.01530187       4.91505574       4.81573086       0.00000000 NULL
P        0.01530187       4.91505574       2.57889517       0.00000000 NULL
P        1.38252133       0.80006272       2.60714600       0.00000000 NULL
P        1.38252133       0.80006272       4.78748002       0.00000000 NULL
