16
Lattice="4.00636 0.0 0.0 0.0 9.03596 0.0 0.0 0.0 10.16296" Properties=species:S:1:pos:R:3:initial_magmoms:R:1:castep_labels:S:1 n_minim_iter=1 pbc="T T T"
P        2.08378997       1.01523890       0.02934047       0.00000000 NULL
P        1.92257003       5.53321890      10.13361953       0.00000000 NULL
P        1.92257003       3.50274110       0.02934047       0.00000000 NULL
P        2.08378997       8.02072110      10.13361953       0.00000000 NULL
P        2.90846151       8.74095217       7.44431535       0.00000000 NULL
P        1.09789849       4.22297217       2.71864465       0.00000000 NULL
P        1.09789849       4.81298783       7.44431535       0.00000000 NULL
P        2.90846151       0.29500783       2.71864465       0.00000000 NULL
P        2.77863061       5.55881958       8.31088250       0.00000000 NULL
P        1.22772939       1.04083958       1.85207750       0.00000000 NULL
P        1.22772939       7.99512042       8.31088250       0.00000000 NULL
P        2.77863061       3.47714042       1.85207750       0.00000000 NULL
P        2.04306772       5.75099457       5.08425042       0.00000000 NULL
P        1.96329228       1.23301457       5.07870958       0.00000000 NULL
P        1.96329228       7.80294543       5.08425042       0.00000000 NULL
P        2.04306772       3.28496543       5.07870958       0.00000000 NULL
16
Lattice="4.008190990911268 0.0 0.0 0.0 9.052164254191268 0.0 0.0 0.0 10.173390472641035" Properties=species:S:1:pos:R:3:initial_magmoms:R:1:castep_labels:S:1 n_minim_iter=2 pbc="T T T"
P        2.08483860       1.01733731       0.02915671       0.00000000 NULL
P        1.92335239       5.54341943      10.14423376       0.00000000 NULL
P        1.92335239       3.50874482       0.02915671       0.00000000 NULL
P        2.08483860       8.03482695      10.14423376       0.00000000 NULL
P        2.90985395       8.75669521       7.45174598       0.00000000 NULL
P        1.09833704       4.23061309       2.72164449       0.00000000 NULL
P        1.09833704       4.82155117       7.45174598       0.00000000 NULL
P        2.90985395       0.29546904       2.72164449       0.00000000 NULL
P        2.78013447       5.56886308       8.31922134       0.00000000 NULL
P        1.22805652       1.04278095       1.85416913       0.00000000 NULL
P        1.22805652       8.00938331       8.31922134       0.00000000 NULL
P        2.78013447       3.48330118       1.85416913       0.00000000 NULL
P        2.04394286       5.76123852       5.08955077       0.00000000 NULL
P        1.96424813       1.23515639       5.08383970       0.00000000 NULL
P        1.96424813       7.81700787       5.08955077       0.00000000 NULL
P        2.04394286       3.29092574       5.08383970       0.00000000 NULL
16
Lattice="4.04426439326585 0.0 0.0 0.0 9.39920365093477 0.0 0.0 0.0 10.387491602346088" Properties=species:S:1:pos:R:3:initial_magmoms:R:1:castep_labels:S:1 n_minim_iter=3 pbc="T T T"
P        2.10564776       1.06239674       0.02515515       0.00000000 NULL
P        1.93861663       5.76199857      10.36233645       0.00000000 NULL
P        1.93861663       3.63720508       0.02515515       0.00000000 NULL
P        2.10564776       8.33680691      10.36233645       0.00000000 NULL
P        2.93736032       9.09390353       7.60397822       0.00000000 NULL
P        1.10690408       4.39430170       2.78351338       0.00000000 NULL
P        1.10690408       5.00490195       7.60397822       0.00000000 NULL
P        2.93736032       0.30530012       2.78351338       0.00000000 NULL
P        2.81014785       5.78401401       8.49014648       0.00000000 NULL
P        1.23411655       1.08441218       1.89734512       0.00000000 NULL
P        1.23411655       8.31479147       8.49014648       0.00000000 NULL
P        2.81014785       3.61518964       1.89734512       0.00000000 NULL
P        2.06106783       5.98069208       5.19848538       0.00000000 NULL
P        1.98319656       1.28109026       5.18900622       0.00000000 NULL
P        1.98319656       8.11811339       5.19848538       0.00000000 NULL
P        2.06106783       3.41851157       5.18900622       0.00000000 NULL
16
Lattice="3.9987510190082443 0.0 0.0 0.0 9.557253976206471 0.0 0.0 0.0 10.329350753804986" Properties=species:S:1:pos:R:3:initial_magmoms:R:1:castep_labels:S:1 n_minim_iter=4 pbc="T T T"
P        2.08291669       1.08314474       0.02240230       0.00000000 NULL
P        1.91583432       5.86177173      10.30694845       0.00000000 NULL
P        1.91583432       3.69548225       0.02240230       0.00000000 NULL
P        2.08291669       8.47410923      10.30694845       0.00000000 NULL
P        2.90460077       9.24765654       7.55749276       0.00000000 NULL
P        1.09415024       4.46902956       2.77185799       0.00000000 NULL
P        1.09415024       5.08822442       7.55749276       0.00000000 NULL
P        2.90460077       0.30959743       2.77185799       0.00000000 NULL
P        2.78147208       5.88239376       8.43976609       0.00000000 NULL
P        1.21727894       1.10376677       1.88958466       0.00000000 NULL
P        1.21727894       8.45348721       8.43976609       0.00000000 NULL
P        2.78147208       3.67486022       1.88958466       0.00000000 NULL
P        2.03680410       6.08229405       5.17141156       0.00000000 NULL
P        1.96194692       1.30366707       5.15793920       0.00000000 NULL
P        1.96194692       8.25358691       5.17141156       0.00000000 NULL
P        2.03680410       3.47495992       5.15793920       0.00000000 NULL
16
Lattice="3.8601334224660575 0.0 0.0 0.0 10.019793694703795 0.0 0.0 0.0 10.183665945708404" Properties=species:S:1:pos:R:3:initial_magmoms:R:1:castep_labels:S:1 n_minim_iter=5 pbc="T T T"
P        2.01394759       1.14183317       0.01293349       0.00000000 NULL
P        1.84618583       6.15173002      10.17073246       0.00000000 NULL
P        1.84618583       3.86806368       0.01293349       0.00000000 NULL
P        2.01394759       8.87796052      10.17073246       0.00000000 NULL
P        2.80580461       9.69856860       7.43778148       0.00000000 NULL
P        1.05432881       4.68867175       2.74588446       0.00000000 NULL
P        1.05432881       5.33112194       7.43778148       0.00000000 NULL
P        2.80580461       0.32122509       2.74588446       0.00000000 NULL
P        2.69503913       6.17208515       8.31129206       0.00000000 NULL
P        1.16509429       1.16218830       1.87237388       0.00000000 NULL
P        1.16509429       8.85760539       8.31129206       0.00000000 NULL
P        2.69503913       3.84770854       1.87237388       0.00000000 NULL
P        1.96315189       6.38073965       5.10503349       0.00000000 NULL
P        1.89698153       1.37084280       5.07863245       0.00000000 NULL
P        1.89698153       8.64895089       5.10503349       0.00000000 NULL
P        1.96315189       3.63905404       5.07863245       0.00000000 NULL
16
Lattice="3.8096531396519184 0.0 0.0 0.0 9.85266346815995 0.0 0.0 0.0 10.21726435526105" Properties=species:S:1:pos:R:3:initial_magmoms:R:1:castep_labels:S:1 n_minim_iter=6 pbc="T T T"
P        1.98950447       1.12196206       0.00579661       0.00000000 NULL
P        1.82014867       6.04829380      10.21146774       0.00000000 NULL
P        1.82014867       3.80436967       0.00579661       0.00000000 NULL
P        1.98950447       8.73070141      10.21146774       0.00000000 NULL
P        2.77232582       9.54052856       7.45294484       0.00000000 NULL
P        1.03732732       4.61419682       2.76431951       0.00000000 NULL
P        1.03732732       5.23846665       7.45294484       0.00000000 NULL
P        2.77232582       0.31213491       2.76431951       0.00000000 NULL
P        2.66741401       6.07497474       8.33266824       0.00000000 NULL
P        1.14223913       1.14864301       1.88459612       0.00000000 NULL
P        1.14223913       8.70402046       8.33266824       0.00000000 NULL
P        2.66741401       3.77768872       1.88459612       0.00000000 NULL
P        1.93585075       6.27654747       5.12607077       0.00000000 NULL
P        1.87380239       1.35021574       5.09119359       0.00000000 NULL
P        1.87380239       8.50244773       5.12607077       0.00000000 NULL
P        1.93585075       3.57611600       5.09119359       0.00000000 NULL
16
Lattice="3.7980807899427864 0.0 0.0 0.0 9.947867235110282 0.0 0.0 0.0 10.216725314659913" Properties=species:S:1:pos:R:3:initial_magmoms:R:1:castep_labels:S:1 n_minim_iter=7 pbc="T T T"
P        1.98427929       1.13320235       0.00217521       0.00000000 NULL
P        1.81380150       6.10713596      10.21455010       0.00000000 NULL
P        1.81380150       3.84073127       0.00217521       0.00000000 NULL
P        1.98427929       8.81466489      10.21455010       0.00000000 NULL
P        2.76609782       9.63516131       7.44676135       0.00000000 NULL
P        1.03198297       4.66122770       2.76996396       0.00000000 NULL
P        1.03198297       5.28663954       7.44676135       0.00000000 NULL
P        2.76609782       0.31270592       2.76996396       0.00000000 NULL
P        2.66364978       6.13735048       8.32957621       0.00000000 NULL
P        1.13443101       1.16341686       1.88714910       0.00000000 NULL
P        1.13443101       8.78445037       8.32957621       0.00000000 NULL
P        2.66364978       3.81051676       1.88714910       0.00000000 NULL
P        1.92910289       6.33799140       5.12835330       0.00000000 NULL
P        1.86897790       1.36405778       5.08837201       0.00000000 NULL
P        1.86897790       8.58380946       5.12835330       0.00000000 NULL
P        1.92910289       3.60987584       5.08837201       0.00000000 NULL
16
Lattice="3.7762551373542546 0.0 0.0 0.0 9.942590926826474 0.0 0.0 0.0 10.192023976231178" Properties=species:S:1:pos:R:3:initial_magmoms:R:1:castep_labels:S:1 n_minim_iter=8 pbc="T T T"
P        1.97338056       1.13243754      -0.00053007       0.00000000 NULL
P        1.80287458       6.10373300      10.19255405       0.00000000 NULL
P        1.80287458       3.83885792      -0.00053007       0.00000000 NULL
P        1.97338056       8.81015339      10.19255405       0.00000000 NULL
P        2.75181218       9.63194479       7.42425720       0.00000000 NULL
P        1.02444296       4.66064933       2.76776678       0.00000000 NULL
P        1.02444296       5.28194160       7.42425720       0.00000000 NULL
P        2.75181218       0.31064614       2.76776678       0.00000000 NULL
P        2.65149892       6.13707925       8.30743266       0.00000000 NULL
P        1.12475621       1.16578378       1.88459132       0.00000000 NULL
P        1.12475621       8.77680714       8.30743266       0.00000000 NULL
P        2.65149892       3.80551168       1.88459132       0.00000000 NULL
P        1.91732655       6.33530958       5.11800808       0.00000000 NULL
P        1.85892859       1.36401412       5.07401590       0.00000000 NULL
P        1.85892859       8.57857681       5.11800808       0.00000000 NULL
P        1.91732655       3.60728134       5.07401590       0.00000000 NULL
16
Lattice="3.7587626574398563 0.0 0.0 0.0 9.952404171376497 0.0 0.0 0.0 10.177173102385868" Properties=species:S:1:pos:R:3:initial_magmoms:R:1:castep_labels:S:1 n_minim_iter=9 pbc="T T T"
P        1.96479097       1.13338773      -0.00348553       0.00000000 NULL
P        1.79397169       6.10958981      10.18065863       0.00000000 NULL
P        1.79397169       3.84281436      -0.00348553       0.00000000 NULL
P        1.96479097       8.81901645      10.18065863       0.00000000 NULL
P        2.74087455       9.64358017       7.40856503       0.00000000 NULL
P        1.01788811       4.66737808       2.76860807       0.00000000 NULL
P        1.01788811       5.28502609       7.40856503       0.00000000 NULL
P        2.74087455       0.30882400       2.76860807       0.00000000 NULL
P        2.64264808       6.14649338       8.29319473       0.00000000 NULL
P        1.11611457       1.17029130       1.88397837       0.00000000 NULL
P        1.11611457       8.78211287       8.29319473       0.00000000 NULL
P        2.64264808       3.80591079       1.88397837       0.00000000 NULL
P        1.90772613       6.34218875       5.11275371       0.00000000 NULL
P        1.85103652       1.36598667       5.06441939       0.00000000 NULL
P        1.85103652       8.58641750       5.11275371       0.00000000 NULL
P        1.90772613       3.61021542       5.06441939       0.00000000 NULL
16
Lattice="3.7267090002355814 0.0 0.0 0.0 9.963043477462806 0.0 0.0 0.0 10.147966461660205" Properties=species:S:1:pos:R:3:initial_magmoms:R:1:castep_labels:S:1 n_minim_iter=10 pbc="T T T"
P        1.94900385       1.13414082      -0.00893423       0.00000000 NULL
P        1.77770515       6.11566256      10.15690069       0.00000000 NULL
P        1.77770515       3.84738092      -0.00893423       0.00000000 NULL
P        1.94900385       8.82890266      10.15690069       0.00000000 NULL
P        2.72087718       9.65793243       7.37822924       0.00000000 NULL
P        1.00583182       4.67641069       2.76973722       0.00000000 NULL
P        1.00583182       5.28663279       7.37822924       0.00000000 NULL
P        2.72087718       0.30511105       2.76973722       0.00000000 NULL
P        2.62639511       6.15954232       8.26550015       0.00000000 NULL
P        1.10031389       1.17802058       1.88246631       0.00000000 NULL
P        1.10031389       8.78502290       8.26550015       0.00000000 NULL
P        2.62639511       3.80350116       1.88246631       0.00000000 NULL
P        1.89015693       6.35004471       5.10222346       0.00000000 NULL
P        1.83655207       1.36852297       5.04574300       0.00000000 NULL
P        1.83655207       8.59452050       5.10222346       0.00000000 NULL
P        1.89015693       3.61299877       5.04574300       0.00000000 NULL
16
Lattice="3.7198742239047142 0.0 0.0 0.0 9.965325376524179 0.0 0.0 0.0 10.141772675725308" Properties=species:S:1:pos:R:3:initial_magmoms:R:1:castep_labels:S:1 n_minim_iter=11 pbc="T T T"
P        1.94562774       1.13425187      -0.01012362       0.00000000 NULL
P        1.77424649       6.11691456      10.15189629       0.00000000 NULL
P        1.77424649       3.84841082      -0.01012362       0.00000000 NULL
P        1.94562774       8.83107350      10.15189629       0.00000000 NULL
P        2.71664313       9.66106200       7.37172512       0.00000000 NULL
P        1.00323110       4.67839931       2.77004755       0.00000000 NULL
P        1.00323110       5.28692606       7.37172512       0.00000000 NULL
P        2.71664313       0.30426337       2.77004755       0.00000000 NULL
P        2.62294756       6.16246969       8.25961508       0.00000000 NULL
P        1.09692667       1.17980700       1.88215759       0.00000000 NULL
P        1.09692667       8.78551838       8.25961508       0.00000000 NULL
P        2.62294756       3.80285569       1.88215759       0.00000000 NULL
P        1.88641688       6.35170957       5.10004563       0.00000000 NULL
P        1.83345735       1.36904688       5.04172705       0.00000000 NULL
P        1.83345735       8.59627849       5.10004563       0.00000000 NULL
P        1.88641688       3.61361581       5.04172705       0.00000000 NULL
16
Lattice="3.648797749343671 0.0 0.0 0.0 9.988966992060329 0.0 0.0 0.0 10.078033887756677" Properties=species:S:1:pos:R:3:initial_magmoms:R:1:castep_labels:S:1 n_minim_iter=12 pbc="T T T"
P        1.91045270       1.13527390      -0.02243924       0.00000000 NULL
P        1.73834505       6.12975740      10.10047312       0.00000000 NULL
P        1.73834505       3.85920959      -0.02243924       0.00000000 NULL
P        1.91045270       8.85369309      10.10047312       0.00000000 NULL
P        2.67249511       9.69362960       7.30465017       0.00000000 NULL
P        0.97630264       4.69914611       2.77338372       0.00000000 NULL
P        0.97630264       5.28982089       7.30465017       0.00000000 NULL
P        2.67249511       0.29533739       2.77338372       0.00000000 NULL
P        2.58681864       6.19315598       8.19901499       0.00000000 NULL
P        1.06197911       1.19867249       1.87901890       0.00000000 NULL
P        1.06197911       8.79029451       8.19901499       0.00000000 NULL
P        2.58681864       3.79581101       1.87901890       0.00000000 NULL
P        1.84759832       6.36894367       5.07776638       0.00000000 NULL
P        1.80119943       1.37446017       5.00026751       0.00000000 NULL
P        1.80119943       8.61450682       5.07776638       0.00000000 NULL
P        1.84759832       3.62002333       5.00026751       0.00000000 NULL
16
Lattice="3.570384181118553 0.0 0.0 0.0 10.007202722521363 0.0 0.0 0.0 10.043227137195947" Properties=species:S:1:pos:R:3:initial_magmoms:R:1:castep_labels:S:1 n_minim_iter=13 pbc="T T T"
P        1.87105056       1.13441984      -0.03425783       0.00000000 NULL
P        1.69933362       6.13802120      10.07748496       0.00000000 NULL
P        1.69933362       3.86918152      -0.03425783       0.00000000 NULL
P        1.87105056       8.87278288      10.07748496       0.00000000 NULL
P        2.62273228       9.72120362       7.25948716       0.00000000 NULL
P        0.94765190       4.71760226       2.78373998       0.00000000 NULL
P        0.94765190       5.28960047       7.25948716       0.00000000 NULL
P        2.62273228       0.28599911       2.78373998       0.00000000 NULL
P        2.54440946       6.22222115       8.16245070       0.00000000 NULL
P        1.02597472       1.21861979       1.88077644       0.00000000 NULL
P        1.02597472       8.78858294       8.16245070       0.00000000 NULL
P        2.54440946       3.78498157       1.88077644       0.00000000 NULL
P        1.80556673       6.38269914       5.07035693       0.00000000 NULL
P        1.76481745       1.37909778       4.97287021       0.00000000 NULL
P        1.76481745       8.62810494       5.07035693       0.00000000 NULL
P        1.80556673       3.62450358       4.97287021       0.00000000 NULL
16
Lattice="3.4761655411903627 0.0 0.0 0.0 10.08705759558306 0.0 0.0 0.0 10.043475905703675" Properties=species:S:1:pos:R:3:initial_magmoms:R:1:castep_labels:S:1 n_minim_iter=14 pbc="T T T"
P        1.82283763       1.13925722      -0.04523851       0.00000000 NULL
P        1.65332791       6.18278602      10.08871442       0.00000000 NULL
P        1.65332791       3.90427158      -0.04523851       0.00000000 NULL
P        1.82283763       8.94780037      10.08871442       0.00000000 NULL
P        2.56130746       9.80904397       7.24061333       0.00000000 NULL
P        0.91485808       4.76551517       2.80286257       0.00000000 NULL
P        0.91485808       5.32154242       7.24061333       0.00000000 NULL
P        2.56130746       0.27801363       2.80286257       0.00000000 NULL
P        2.48960002       6.29137524       8.15535698       0.00000000 NULL
P        0.98656552       1.24784644       1.88811892       0.00000000 NULL
P        0.98656552       8.83921116       8.15535698       0.00000000 NULL
P        2.48960002       3.79568236       1.88811892       0.00000000 NULL
P        1.75616306       6.43643192       5.08089101       0.00000000 NULL
P        1.72000248       1.39290312       4.96258489       0.00000000 NULL
P        1.72000248       8.69415448       5.08089101       0.00000000 NULL
P        1.75616306       3.65062568       4.96258489       0.00000000 NULL
16
Lattice="3.367060754146589 0.0 0.0 0.0 10.1374329747706 0.0 0.0 0.0 10.090413048029282" Properties=species:S:1:pos:R:3:initial_magmoms:R:1:castep_labels:S:1 n_minim_iter=15 pbc="T T T"
P        1.76598425       1.13805324      -0.05513689       0.00000000 NULL
P        1.60107650       6.20676973      10.14554993       0.00000000 NULL
P        1.60107650       3.93066324      -0.05513689       0.00000000 NULL
P        1.76598425       8.99937973      10.14554993       0.00000000 NULL
P        2.48878090       9.86846827       7.25664925       0.00000000 NULL
P        0.87827985       4.79975178       2.83376380       0.00000000 NULL
P        0.87827985       5.33768120       7.25664925       0.00000000 NULL
P        2.48878090       0.26896471       2.83376380       0.00000000 NULL
P        2.42270548       6.34389735       8.18743452       0.00000000 NULL
P        0.94435528       1.27518086       1.90297853       0.00000000 NULL
P        0.94435528       8.86225211       8.18743452       0.00000000 NULL
P        2.42270548       3.79353562       1.90297853       0.00000000 NULL
P        1.69982042       6.47342798       5.11531623       0.00000000 NULL
P        1.66724033       1.40471149       4.97509681       0.00000000 NULL
P        1.66724033       8.73272148       5.11531623       0.00000000 NULL
P        1.69982042       3.66400500       4.97509681       0.00000000 NULL
16
Lattice="3.150529644754221 0.0 0.0 0.0 10.229479213266924 0.0 0.0 0.0 10.314908057305363" Properties=species:S:1:pos:R:3:initial_magmoms:R:1:castep_labels:S:1 n_minim_iter=16 pbc="T T T"
P        1.65061013       1.12595153      -0.07675260       0.00000000 NULL
P        1.49991951       6.24069114      10.39166065       0.00000000 NULL
P        1.49991951       3.98878808      -0.07675260       0.00000000 NULL
P        1.65061013       9.10352768      10.39166065       0.00000000 NULL
P        2.34774443       9.98494183       7.37493496       0.00000000 NULL
P        0.80278522       4.87020222       2.93997310       0.00000000 NULL
P        0.80278522       5.35927699       7.37493496       0.00000000 NULL
P        2.34774443       0.24453739       2.93997310       0.00000000 NULL
P        2.29198286       6.45759858       8.35922459       0.00000000 NULL
P        0.85854679       1.34285897       1.95568347       0.00000000 NULL
P        0.85854679       8.88662024       8.35922459       0.00000000 NULL
P        2.29198286       3.77188064       1.95568347       0.00000000 NULL
P        1.58800152       6.55228943       5.25739166       0.00000000 NULL
P        1.56252812       1.43754982       5.05751640       0.00000000 NULL
P        1.56252812       8.79192939       5.25739166       0.00000000 NULL
P        1.58800152       3.67718979       5.05751640       0.00000000 NULL
16
Lattice="3.3282078736070697 0.0 0.0 0.0 9.963203453847274 0.0 0.0 0.0 9.973971666781294" Properties=species:S:1:pos:R:3:initial_magmoms:R:1:castep_labels:S:1 n_minim_iter=17 pbc="T T T"
P        1.73788857       1.08383645      -0.07651598       0.00000000 NULL
P        1.59031931       6.06543818      10.05048765       0.00000000 NULL
P        1.59031931       3.89776527      -0.07651598       0.00000000 NULL
P        1.73788857       8.87936700      10.05048765       0.00000000 NULL
P        2.48711637       9.73112480       7.11460953       0.00000000 NULL
P        0.84109150       4.74952307       2.85936214       0.00000000 NULL
P        0.84109150       5.21368038       7.11460953       0.00000000 NULL
P        2.48711637       0.23207865       2.85936214       0.00000000 NULL
P        2.42873805       6.31304706       8.08342490       0.00000000 NULL
P        0.89946982       1.33144533       1.89054677       0.00000000 NULL
P        0.89946982       8.63175812       8.08342490       0.00000000 NULL
P        2.42873805       3.65015640       1.89054677       0.00000000 NULL
P        1.67531338       6.39988928       5.09892830       0.00000000 NULL
P        1.65289449       1.41828756       4.87504336       0.00000000 NULL
P        1.65289449       8.54491590       5.09892830       0.00000000 NULL
P        1.67531338       3.56331417       4.87504336       0.00000000 NULL
16
Lattice="3.2368298403858673 0.0 0.0 0.0 10.400491194546452 0.0 0.0 0.0 10.00526264166208" Properties=species:S:1:pos:R:3:initial_magmoms:R:1:castep_labels:S:1 n_minim_iter=18 pbc="T T T"
P        1.68976939       1.13063768      -0.08018918       0.00000000 NULL
P        1.54706045       6.33088328      10.08545182       0.00000000 NULL
P        1.54706045       4.06960792      -0.08018918       0.00000000 NULL
P        1.68976939       9.26985351      10.08545182       0.00000000 NULL
P        2.41929059      10.15914310       7.13278730       0.00000000 NULL
P        0.81753925       4.95889750       2.87247534       0.00000000 NULL
P        0.81753925       5.44159369       7.13278730       0.00000000 NULL
P        2.41929059       0.24134810       2.87247534       0.00000000 NULL
P        2.36362931       6.59605312       8.10507754       0.00000000 NULL
P        0.87320053       1.39580752       1.90018510       0.00000000 NULL
P        0.87320053       9.00468367       8.10507754       0.00000000 NULL
P        2.36362931       3.80443807       1.90018510       0.00000000 NULL
P        1.62903199       6.68145646       5.11968699       0.00000000 NULL
P        1.60779785       1.48121086       4.88557565       0.00000000 NULL
P        1.60779785       8.91928033       5.11968699       0.00000000 NULL
P        1.62903199       3.71903473       4.88557565       0.00000000 NULL
16
Lattice="3.2228689077284427 0.0 0.0 0.0 10.209051393664328 0.0 0.0 0.0 9.99172430848761" Properties=species:S:1:pos:R:3:initial_magmoms:R:1:castep_labels:S:1 n_minim_iter=19 pbc="T T T"
P        1.68189356       1.10578705      -0.08186711       0.00000000 NULL
P        1.54097535       6.21031275      10.07359141       0.00000000 NULL
P        1.54097535       3.99873865      -0.08186711       0.00000000 NULL
P        1.68189356       9.10326435      10.07359141       0.00000000 NULL
P        2.40927470       9.97073930       7.12100936       0.00000000 NULL
P        0.81359421       4.86621360       2.87071495       0.00000000 NULL
P        0.81359421       5.34283779       7.12100936       0.00000000 NULL
P        2.40927470       0.23831210       2.87071495       0.00000000 NULL
P        2.35428517       6.47817121       8.09170517       0.00000000 NULL
P        0.86858374       1.37364551       1.90001914       0.00000000 NULL
P        0.86858374       8.83540588       8.09170517       0.00000000 NULL
P        2.35428517       3.73088018       1.90001914       0.00000000 NULL
P        1.62174462       6.56131346       5.11546167       0.00000000 NULL
P        1.60112429       1.45678777       4.87626264       0.00000000 NULL
P        1.60112429       8.75226363       5.11546167       0.00000000 NULL
P        1.62174462       3.64773793       4.87626264       0.00000000 NULL
16
Lattice="3.2300404872344934 0.0 0.0 0.0 10.242957186458387 0.0 0.0 0.0 10.04239424320992" Properties=species:S:1:pos:R:3:initial_magmoms:R:1:castep_labels:S:1 n_minim_iter=20 pbc="T T T"
P        1.68522581       1.10771464      -0.08372301       0.00000000 NULL
P        1.54481468       6.22919324      10.12611725       0.00000000 NULL
P        1.54481468       4.01376395      -0.08372301       0.00000000 NULL
P        1.68522581       9.13524254      10.12611725       0.00000000 NULL
P        2.41499402      10.00380094       7.15519768       0.00000000 NULL
P        0.81504647       4.88232234       2.88719657       0.00000000 NULL
P        0.81504647       5.36063484       7.15519768       0.00000000 NULL
P        2.41499402       0.23915625       2.88719657       0.00000000 NULL
P        2.36025658       6.50256994       8.13137602       0.00000000 NULL
P        0.86978390       1.38109134       1.91101822       0.00000000 NULL
P        0.86978390       8.86186584       8.13137602       0.00000000 NULL
P        2.36025658       3.74038725       1.91101822       0.00000000 NULL
P        1.62516064       6.58475307       5.14338590       0.00000000 NULL
P        1.60487984       1.46327447       4.89900835       0.00000000 NULL
P        1.60487984       8.77968271       5.14338590       0.00000000 NULL
P        1.62516064       3.65820412       4.89900835       0.00000000 NULL
16
Lattice="3.225808407133308 0.0 0.0 0.0 10.24007086788665 0.0 0.0 0.0 10.025844438615257" Properties=species:S:1:pos:R:3:initial_magmoms:R:1:castep_labels:S:1 n_minim_iter=21 pbc="T T T"
P        1.68264838       1.10596623      -0.08434763       0.00000000 NULL
P        1.54316003       6.22600167      10.11019207       0.00000000 NULL
P        1.54316003       4.01406920      -0.08434763       0.00000000 NULL
P        1.68264838       9.13410463      10.11019207       0.00000000 NULL
P        2.41205863      10.00064103       7.14213139       0.00000000 NULL
P        0.81374978       4.88060559       2.88371305       0.00000000 NULL
P        0.81374978       5.35946527       7.14213139       0.00000000 NULL
P        2.41205863       0.23942984       2.88371305       0.00000000 NULL
P        2.35760454       6.50271493       8.11703162       0.00000000 NULL
P        0.86820387       1.38267949       1.90881281       0.00000000 NULL
P        0.86820387       8.85739137       8.11703162       0.00000000 NULL
P        2.35760454       3.73735594       1.90881281       0.00000000 NULL
P        1.62288344       6.58415831       5.13653768       0.00000000 NULL
P        1.60292497       1.46412287       4.88930676       0.00000000 NULL
P        1.60292497       8.77594800       5.13653768       0.00000000 NULL
P        1.62288344       3.65591256       4.88930676       0.00000000 NULL
16
Lattice="3.2247861678797216 0.0 0.0 0.0 10.246979070954104 0.0 0.0 0.0 10.022772474477597" Properties=species:S:1:pos:R:3:initial_magmoms:R:1:castep_labels:S:1 n_minim_iter=22 pbc="T T T"
P        1.68168383       1.10507294      -0.08530209       0.00000000 NULL
P        1.54310234       6.22856247      10.10807457       0.00000000 NULL
P        1.54310234       4.01841660      -0.08530209       0.00000000 NULL
P        1.68168383       9.14190614      10.10807457       0.00000000 NULL
P        2.41156107      10.00702917       7.13839946       0.00000000 NULL
P        0.81322509       4.88353963       2.88437301       0.00000000 NULL
P        0.81322509       5.36343944       7.13839946       0.00000000 NULL
P        2.41156107       0.23994991       2.88437301       0.00000000 NULL
P        2.35738754       6.50947478       8.11342937       0.00000000 NULL
P        0.86739863       1.38598524       1.90934310       0.00000000 NULL
P        0.86739863       8.86099383       8.11342937       0.00000000 NULL
P        2.35738754       3.73750429       1.90934310       0.00000000 NULL
P        1.62219382       6.59005999       5.13683569       0.00000000 NULL
P        1.60259235       1.46657046       4.88593679       0.00000000 NULL
P        1.60259235       8.78040861       5.13683569       0.00000000 NULL
P        1.62219382       3.65691908       4.88593679       0.00000000 NULL
16
Lattice="3.214756758602706 0.0 0.0 0.0 10.351626733686466 0.0 0.0 0.0 9.947013880688214" Properties=species:S:1:pos:R:3:initial_magmoms:R:1:castep_labels:S:1 n_minim_iter=23 pbc="T T T"
P        1.66940664       1.09002030      -0.09991480       0.00000000 NULL
P        1.54535012       6.26583367      10.04692868       0.00000000 NULL
P        1.54535012       4.08579306      -0.09991480       0.00000000 NULL
P        1.66940664       9.26160643      10.04692868       0.00000000 NULL
P        2.40807855      10.10253286       7.06025410       0.00000000 NULL
P        0.80667821       4.92671949       2.88675978       0.00000000 NULL
P        0.80667821       5.42490724       7.06025410       0.00000000 NULL
P        2.40807855       0.24909388       2.88675978       0.00000000 NULL
P        2.35815934       6.61385075       8.03461401       0.00000000 NULL
P        0.85659742       1.43803739       1.91239987       0.00000000 NULL
P        0.85659742       8.91358935       8.03461401       0.00000000 NULL
P        2.35815934       3.73777598       1.91239987       0.00000000 NULL
P        1.61434095       6.68055708       5.12762193       0.00000000 NULL
P        1.60041581       1.50474372       4.81939195       0.00000000 NULL
P        1.60041581       8.84688302       5.12762193       0.00000000 NULL
P        1.61434095       3.67106965       4.81939195       0.00000000 NULL
