20
Lattice="6.9102900000000025 -2.8528533066912003e-31 -6.3930896260109175e-31 3.4551450000000012 8.055530481314223 7.835307764555028e-14 3.455145000000002 2.734986301300417 7.5770324842303305" Properties=species:S:1:pos:R:3:initial_magmoms:R:1:castep_labels:S:1 n_minim_iter=1 pbc="T T T"
P        6.96409352       9.50071176       6.83709889       0.00000000 NULL
P        6.96409352       6.68506341       4.52844983       0.00000000 NULL
P        3.40134148       4.26136659       2.82654529       0.00000000 NULL
P        3.40134148       1.13389179       0.96197095       0.00000000 NULL
P        6.79630235       4.72175416       4.91640602       0.00000000 NULL
P       10.25144735       3.40849053       6.44914270       0.00000000 NULL
P        7.02427765       3.56721363       6.56059706       0.00000000 NULL
P        3.56913265       4.56303105       4.80495166       0.00000000 NULL
P        8.01745666       5.56488541       6.94804711       0.00000000 NULL
P        4.56231166       2.56535928       4.41750161       0.00000000 NULL
P        5.80312334       5.76443243       6.66387050       0.00000000 NULL
P        9.25826834       2.36581226       4.70167822       0.00000000 NULL
P        9.26454979       6.26282256       1.16992488       0.00000000 NULL
P        5.80940479       7.18796631       2.61859136       0.00000000 NULL
P        4.55603021       5.88703572       1.70508614       0.00000000 NULL
P        8.01117521       7.56375315       2.08343010       0.00000000 NULL
P        6.48009992       5.97371659       0.22248440       0.00000000 NULL
P        9.93524492       7.47707228       3.56603184       0.00000000 NULL
P        7.34048008       4.89771686       1.75482481       0.00000000 NULL
P       10.79562508       8.55307200       2.03369142       0.00000000 NULL
20
Lattice="6.919343272337019 -4.279391746339298e-18 -2.398118983029682e-18 3.4596716361685096 8.076138475046765 -0.002020106845169926 3.4596716361685105 2.7400829445895165 7.597102224251824" Properties=species:S:1:pos:R:3:initial_magmoms:R:1:castep_labels:S:1 n_minim_iter=2 pbc="T T T"
P        6.97325318       9.52293731       6.85339103       0.00000000 NULL
P        6.97325318       6.70139482       4.53923214       0.00000000 NULL
P        3.40576173       4.27138460       2.83289437       0.00000000 NULL
P        3.40576173       1.13672610       0.96464668       0.00000000 NULL
P        6.80519087       4.73249451       4.92848862       0.00000000 NULL
P       10.26486251       3.41569914       6.46615465       0.00000000 NULL
P        7.03349568       3.57446938       6.57764211       0.00000000 NULL
P        3.57382404       4.57372427       4.81700116       0.00000000 NULL
P        8.02785800       5.57735622       6.96571063       0.00000000 NULL
P        4.56818636       2.57083743       4.42893265       0.00000000 NULL
P        5.81082855       5.77752510       6.68064841       0.00000000 NULL
P        9.27050018       2.37066855       4.71399487       0.00000000 NULL
P        9.27673139       6.27832302       1.17135356       0.00000000 NULL
P        5.81705975       7.20592616       2.62416739       0.00000000 NULL
P        4.56195516       5.90139787       1.70813589       0.00000000 NULL
P        8.02162679       7.58285131       2.08738506       0.00000000 NULL
P        6.48850981       5.98898127       0.22148370       0.00000000 NULL
P        9.94818145       7.49526791       3.57403724       0.00000000 NULL
P        7.35017674       4.90971390       1.75847760       0.00000000 NULL
P       10.80984837       8.57453528       2.03704335       0.00000000 NULL
20
Lattice="7.044096123621129 5.948139339882494e-17 1.0347223355781292e-17 3.5220480618105645 8.374653294987048 -0.02913297694498178 3.5220480618105654 2.8159313132602213 7.887090552325596" Properties=species:S:1:pos:R:3:initial_magmoms:R:1:castep_labels:S:1 n_minim_iter=3 pbc="T T T"
P        7.09948463       9.84647751       7.09056408       0.00000000 NULL
P        7.09948463       6.93939940       4.69637228       0.00000000 NULL
P        3.46665956       4.41713527       2.92525439       0.00000000 NULL
P        3.46665956       1.17815703       1.00372439       0.00000000 NULL
P        6.92765675       4.88938805       5.10374875       0.00000000 NULL
P       10.44970481       3.52183556       6.71232058       0.00000000 NULL
P        7.16053550       3.68125381       6.82426306       0.00000000 NULL
P        3.63848743       4.72996980       4.99180627       0.00000000 NULL
P        8.17094257       5.75972514       7.22170185       0.00000000 NULL
P        4.64889451       2.65149847       4.59436748       0.00000000 NULL
P        5.91724968       5.96889452       6.92382195       0.00000000 NULL
P        9.43929774       2.44232910       4.89224738       0.00000000 NULL
P        9.44462787       6.50299488       1.19332134       0.00000000 NULL
P        5.92257981       7.46695071       2.70652447       0.00000000 NULL
P        4.64356438       6.10967381       1.75345323       0.00000000 NULL
P        8.16561244       7.86027178       2.14639257       0.00000000 NULL
P        6.60435916       6.21012559       0.20858190       0.00000000 NULL
P       10.12640723       7.75982000       3.69126390       0.00000000 NULL
P        7.48383309       5.08399385       1.81231574       0.00000000 NULL
P       11.00588115       8.88595174       2.08753006       0.00000000 NULL
20
Lattice="6.990931148721102 3.677571728223236e-17 5.837573796297721e-18 3.495465574360551 8.455102886511947 0.004339664634734597 3.495465574360552 2.8747296536608946 7.951396925858658" Properties=species:S:1:pos:R:3:initial_magmoms:R:1:castep_labels:S:1 n_minim_iter=4 pbc="T T T"
P        7.04583545       9.96663495       7.17690526       0.00000000 NULL
P        7.04583545       7.02811386       4.75669962       0.00000000 NULL
P        3.44056128       4.46951927       2.96007072       0.00000000 NULL
P        3.44056128       1.19539700       1.01779757       0.00000000 NULL
P        6.87528745       4.95708688       5.15662291       0.00000000 NULL
P       10.37075303       3.58255904       6.77264230       0.00000000 NULL
P        7.10657485       3.74314650       6.88540579       0.00000000 NULL
P        3.61110927       4.79649942       5.04385942       0.00000000 NULL
P        8.10641678       5.84207341       7.29290325       0.00000000 NULL
P        4.61095120       2.69757251       4.63636197       0.00000000 NULL
P        5.87544552       6.05299953       6.99252156       0.00000000 NULL
P        9.37091110       2.48664638       4.93674366       0.00000000 NULL
P        9.37347543       6.56782476       1.22501841       0.00000000 NULL
P        5.87800985       7.55219439       2.75718955       0.00000000 NULL
P        4.60838687       6.17232453       1.78825368       0.00000000 NULL
P        8.10385245       7.94769463       2.19395428       0.00000000 NULL
P        6.55440602       6.27029101       0.23581005       0.00000000 NULL
P       10.04987160       7.84972814       3.74639790       0.00000000 NULL
P        7.42745628       5.14085744       1.84424607       0.00000000 NULL
P       10.92292185       8.97916171       2.13796188       0.00000000 NULL
20
Lattice="6.855903758525334 8.33989929598792e-17 6.105401553610222e-17 3.427951879262667 8.611010531794566 0.10545144333098952 3.4279518792626678 3.0227686324223817 8.063714539864417" Properties=species:S:1:pos:R:3:initial_magmoms:R:1:castep_labels:S:1 n_minim_iter=5 pbc="T T T"
P        6.90951026      10.22914802       7.36376409       0.00000000 NULL
P        6.90951026       7.22152072       4.88998488       0.00000000 NULL
P        3.37434538       4.58243292       3.03683416       0.00000000 NULL
P        3.37434538       1.23445665       1.04774883       0.00000000 NULL
P        6.74231624       5.11156774       5.26408656       0.00000000 NULL
P       10.17026812       3.72809047       6.88421096       0.00000000 NULL
P        6.96949128       3.89274129       6.99982773       0.00000000 NULL
P        3.54153940       4.94691691       5.14846979       0.00000000 NULL
P        7.94318506       6.03034659       7.43262287       0.00000000 NULL
P        4.51523318       2.80931162       4.71567466       0.00000000 NULL
P        5.76862246       6.24440735       7.12777711       0.00000000 NULL
P        9.19657434       2.59525086       5.02052042       0.00000000 NULL
P        9.19187401       6.69716363       1.30884154       0.00000000 NULL
P        5.76392213       7.73073648       2.88119289       0.00000000 NULL
P        4.51993351       6.29901559       1.87584756       0.00000000 NULL
P        7.94788539       8.12888451       2.31418687       0.00000000 NULL
P        6.42768460       6.38765364       0.31560988       0.00000000 NULL
P        9.85563648       8.04024646       3.87442455       0.00000000 NULL
P        7.28412292       5.25969806       1.92194108       0.00000000 NULL
P       10.71207480       9.16820205       2.26809335       0.00000000 NULL
20
Lattice="6.742623946334251 1.0747890915454866e-16 7.409415776357081e-17 3.3713119731671255 8.81800869852307 0.276381797675841 3.3713119731671264 3.253825047903169 8.200383336341844" Properties=species:S:1:pos:R:3:initial_magmoms:R:1:castep_labels:S:1 n_minim_iter=6 pbc="T T T"
P        6.79493078      10.60821141       7.63024694       0.00000000 NULL
P        6.79493078       7.49953920       5.08490075       0.00000000 NULL
P        3.31900514       4.74275773       3.14910628       0.00000000 NULL
P        3.31900514       1.29315914       1.08927628       0.00000000 NULL
P        6.63037809       5.34355628       5.41157494       0.00000000 NULL
P       10.00169006       3.94618564       7.02719096       0.00000000 NULL
P        6.85486981       4.12226196       7.15083063       0.00000000 NULL
P        3.48355783       5.16747996       5.28793527       0.00000000 NULL
P        7.80398969       6.30468665       7.61867209       0.00000000 NULL
P        4.43267772       2.98505527       4.82009380       0.00000000 NULL
P        5.68125820       6.52457739       7.30552380       0.00000000 NULL
P        9.05257018       2.76516452       5.13324209       0.00000000 NULL
P        9.03515922       6.87215241       1.44042071       0.00000000 NULL
P        5.66384724       7.98177315       3.07434365       0.00000000 NULL
P        4.45008868       6.47016144       2.01289949       0.00000000 NULL
P        7.82140065       8.38376412       2.50186487       0.00000000 NULL
P        6.32129785       6.54517081       0.44869794       0.00000000 NULL
P        9.69260982       8.30875476       4.06606641       0.00000000 NULL
P        7.16395005       5.42633126       2.04204691       0.00000000 NULL
P       10.53526202       9.42759430       2.47271745       0.00000000 NULL
20
Lattice="6.6703164957345695 1.0851064268409062e-16 8.383235129346582e-17 3.3351582478672848 8.852865137265802 0.2830339644657126 3.3351582478672857 3.2719164158979788 8.230910783809698" Properties=species:S:1:pos:R:3:initial_magmoms:R:1:castep_labels:S:1 n_minim_iter=7 pbc="T T T"
P        6.72106772      10.64818381       7.65739238       0.00000000 NULL
P        6.72106772       7.53898851       5.11352474       0.00000000 NULL
P        3.28440702       4.75538812       3.15889819       0.00000000 NULL
P        3.28440702       1.30700265       1.09807418       0.00000000 NULL
P        6.55814384       5.37912232       5.43000671       0.00000000 NULL
P        9.89330209       3.95518487       7.05787644       0.00000000 NULL
P        6.78248916       4.14329160       7.18996380       0.00000000 NULL
P        3.44733091       5.19101558       5.29791935       0.00000000 NULL
P        7.71650017       6.31565127       7.64559997       0.00000000 NULL
P        4.38134192       3.01865592       4.84228318       0.00000000 NULL
P        5.62413282       6.54524590       7.31863231       0.00000000 NULL
P        8.95929107       2.78906129       5.16925085       0.00000000 NULL
P        8.92875551       6.89301637       1.43726492       0.00000000 NULL
P        5.59359726       8.02223954       3.10274141       0.00000000 NULL
P        4.41187749       6.48265930       2.02165793       0.00000000 NULL
P        7.74703574       8.43259660       2.51834840       0.00000000 NULL
P        6.25316810       6.57280937       0.45753711       0.00000000 NULL
P        9.58832635       8.34244654       4.08246923       0.00000000 NULL
P        7.08746489       5.45241167       2.05310505       0.00000000 NULL
P       10.42262314       9.46284424       2.48690128       0.00000000 NULL
20
Lattice="6.729969003908415 1.0336004408923952e-16 6.484128484199983e-17 3.3649845019542073 8.9053289794225 0.2917869286189789 3.364984501954208 3.2979617997273154 8.277286500477945" Properties=species:S:1:pos:R:3:initial_magmoms:R:1:castep_labels:S:1 n_minim_iter=8 pbc="T T T"
P        6.78049859      10.71207055       7.70228980       0.00000000 NULL
P        6.78049859       7.59286562       5.15132033       0.00000000 NULL
P        3.31445492       4.78005464       3.17618229       0.00000000 NULL
P        3.31445492       1.32159075       1.10835441       0.00000000 NULL
P        6.61610006       5.42309393       5.46144907       0.00000000 NULL
P        9.98108456       3.97651326       7.10037414       0.00000000 NULL
P        6.84383795       4.17458615       7.23945967       0.00000000 NULL
P        3.47885345       5.22502103       5.32236354       0.00000000 NULL
P        7.78557279       6.34486216       7.68956991       0.00000000 NULL
P        4.42058829       3.05474503       4.87225330       0.00000000 NULL
P        5.67436521       6.58331237       7.34999092       0.00000000 NULL
P        9.03934972       2.81629481       5.21183229       0.00000000 NULL
P        9.00086776       6.92990122       1.44033231       0.00000000 NULL
P        5.63588326       8.07707315       3.13599132       0.00000000 NULL
P        4.45907025       6.51127674       2.03649901       0.00000000 NULL
P        7.82405475       8.49569762       2.53982463       0.00000000 NULL
P        6.30874842       6.61355132       0.46666474       0.00000000 NULL
P        9.67373292       8.39342304       4.10965890       0.00000000 NULL
P        7.15118959       5.48803891       2.06951658       0.00000000 NULL
P       10.51617410       9.51893545       2.50680705       0.00000000 NULL
20
Lattice="6.676343997777522 8.66351218552357e-17 5.72618444121341e-17 3.338171998888761 8.855983742279612 0.29086771385026067 3.338171998888762 3.2803436592321633 8.231184455946583" Properties=species:S:1:pos:R:3:initial_magmoms:R:1:castep_labels:S:1 n_minim_iter=9 pbc="T T T"
P        6.72621218      10.65218691       7.65900867       0.00000000 NULL
P        6.72621218       7.55230419       5.12406957       0.00000000 NULL
P        3.28830381       4.75249461       3.15806103       0.00000000 NULL
P        3.28830381       1.31566909       1.10296504       0.00000000 NULL
P        6.56329776       5.39548206       5.43125680       0.00000000 NULL
P        9.90146976       3.95302529       7.06095373       0.00000000 NULL
P        6.78939024       4.15267617       7.20114731       0.00000000 NULL
P        3.45121824       5.19583119       5.29106323       0.00000000 NULL
P        7.72304098       6.30676323       7.64650472       0.00000000 NULL
P        4.38486898       3.04174412       4.84570582       0.00000000 NULL
P        5.62964702       6.54573358       7.30618500       0.00000000 NULL
P        8.96781902       2.80277378       5.18602553       0.00000000 NULL
P        8.92722150       6.89063461       1.43063026       0.00000000 NULL
P        5.58904950       8.03351283       3.12126354       0.00000000 NULL
P        4.42546650       6.47295577       2.02545026       0.00000000 NULL
P        7.76363850       8.45119167       2.52644353       0.00000000 NULL
P        6.25858757       6.57711120       0.46551925       0.00000000 NULL
P        9.59675957       8.34703624       4.08637454       0.00000000 NULL
P        7.09410043       5.45872590       2.05822133       0.00000000 NULL
P       10.43227243       9.46542154       2.49367246       0.00000000 NULL
20
Lattice="6.6806503116856035 8.699997793598585e-17 5.637844607457633e-17 3.3403251558428018 8.865457354715002 0.28772928091270716 3.3403251558428027 3.280608097672579 8.241160886480131" Properties=species:S:1:pos:R:3:initial_magmoms:R:1:castep_labels:S:1 n_minim_iter=10 pbc="T T T"
P        6.73040614      10.65938881       7.66436625       0.00000000 NULL
P        6.73040614       7.55970936       5.12896899       0.00000000 NULL
P        3.29056933       4.75511009       3.15959716       0.00000000 NULL
P        3.29056933       1.31792264       1.10484792       0.00000000 NULL
P        6.56747054       5.40058484       5.43623601       0.00000000 NULL
P        9.90779570       3.95305598       7.06936995       0.00000000 NULL
P        6.79383008       4.15448751       7.21081389       0.00000000 NULL
P        3.45350493       5.19915331       5.29479207       0.00000000 NULL
P        7.72805102       6.30765260       7.65419139       0.00000000 NULL
P        4.38772587       3.04598821       4.85141457       0.00000000 NULL
P        5.63324960       6.54866103       7.31096922       0.00000000 NULL
P        8.97357476       2.80497979       5.19463674       0.00000000 NULL
P        8.93138087       6.89660606       1.42784734       0.00000000 NULL
P        5.59105571       8.04188401       3.12432702       0.00000000 NULL
P        4.42991976       6.47697016       2.02545443       0.00000000 NULL
P        7.77024491       8.46151992       2.52671993       0.00000000 NULL
P        6.26256883       6.58440363       0.46370379       0.00000000 NULL
P        9.60289399       8.35408645       4.08847057       0.00000000 NULL
P        7.09873179       5.46409876       2.05913953       0.00000000 NULL
P       10.43905695       9.47439131       2.49303482       0.00000000 NULL
20
Lattice="6.676608187938735 8.752550380709241e-17 5.707339308882455e-17 3.3383040939693673 8.866558740567967 0.2854101713779433 3.3383040939693682 3.2788006818738475 8.242984226262466" Properties=species:S:1:pos:R:3:initial_magmoms:R:1:castep_labels:S:1 n_minim_iter=11 pbc="T T T"
P        6.72614241      10.65719972       7.66291008       0.00000000 NULL
P        6.72614241       7.56083941       5.12968151       0.00000000 NULL
P        3.28876987       4.75335019       3.15828038       0.00000000 NULL
P        3.28876987       1.31932952       1.10591681       0.00000000 NULL
P        6.56343802       5.40162490       5.43626927       0.00000000 NULL
P        9.90174211       3.94985548       7.07091215       0.00000000 NULL
P        6.78977836       4.15341750       7.21385211       0.00000000 NULL
P        3.45147426       5.19806288       5.29332931       0.00000000 NULL
P        7.72336270       6.30281082       7.65464325       0.00000000 NULL
P        4.38505861       3.04866956       4.85253817       0.00000000 NULL
P        5.62985368       6.54598779       7.30833286       0.00000000 NULL
P        8.96815777       2.80549260       5.19884856       0.00000000 NULL
P        8.92399040       6.89603901       1.42399391       0.00000000 NULL
P        5.58568631       8.04319944       3.12561345       0.00000000 NULL
P        4.42922597       6.47460750       2.02415813       0.00000000 NULL
P        7.76753007       8.46463095       2.52544923       0.00000000 NULL
P        6.25875414       6.58554195       0.46240072       0.00000000 NULL
P        9.59705823       8.35369650       4.08720665       0.00000000 NULL
P        7.09446224       5.46471397       2.05858143       0.00000000 NULL
P       10.43276633       9.47452447       2.49102593       0.00000000 NULL
20
Lattice="6.585409348058463 9.806508753678114e-17 7.376103995492234e-17 3.2927046740292316 8.895369152752862 0.2402202689371431 3.2927046740292325 3.2460766698793404 8.285426023725062" Properties=species:S:1:pos:R:3:initial_magmoms:R:1:castep_labels:S:1 n_minim_iter=12 pbc="T T T"
P        6.62941487      10.61273822       7.63397425       0.00000000 NULL
P        6.62941487       7.59943051       5.15449518       0.00000000 NULL
P        3.24869915       4.71299453       3.12765813       0.00000000 NULL
P        3.24869915       1.35772838       1.13516500       0.00000000 NULL
P        6.47279905       5.43747593       5.44006482       0.00000000 NULL
P        9.76550372       3.87932365       7.10818435       0.00000000 NULL
P        6.69801965       4.13839240       7.29010078       0.00000000 NULL
P        3.40531498       5.17840718       5.25814838       0.00000000 NULL
P        7.61863134       6.18994295       7.66855560       0.00000000 NULL
P        4.32592666       3.12685662       4.87969356       0.00000000 NULL
P        5.55218736       6.48998602       7.24126171       0.00000000 NULL
P        8.84489204       2.82681356       5.30698746       0.00000000 NULL
P        8.75105933       6.88428938       1.33354978       0.00000000 NULL
P        5.45835466       8.08180268       3.16949362       0.00000000 NULL
P        4.41975937       6.41631376       1.99999786       0.00000000 NULL
P        7.71246404       8.54977830       2.50304555       0.00000000 NULL
P        6.17281650       6.61552454       0.43905443       0.00000000 NULL
P        9.46552118       8.35056752       4.06398898       0.00000000 NULL
P        6.99800219       5.48370125       2.05089366       0.00000000 NULL
P       10.29070687       9.48239081       2.45214975       0.00000000 NULL
20
Lattice="7.147324761648724 -2.2033488503067473e-17 -6.146140016910386e-17 3.573662380824362 9.249386604060884 0.21722272219907396 3.573662380824363 3.344639976529161 8.626222909815372" Properties=species:S:1:pos:R:3:initial_magmoms:R:1:castep_labels:S:1 n_minim_iter=13 pbc="T T T"
P        7.19369927      10.97202973       7.90958108       0.00000000 NULL
P        7.19369927       7.91901014       5.35558736       0.00000000 NULL
P        3.52728787       4.86792538       3.21313499       0.00000000 NULL
P        3.52728787       1.42908790       1.20858782       0.00000000 NULL
P        7.03862548       5.64705325       5.64644416       0.00000000 NULL
P       10.61228786       3.99460001       7.40150156       0.00000000 NULL
P        7.25602404       4.27594073       7.59905723       0.00000000 NULL
P        3.68236166       5.36571253       5.44888849       0.00000000 NULL
P        8.29284155       6.37423451       7.98575392       0.00000000 NULL
P        4.71917917       3.26741875       5.06219180       0.00000000 NULL
P        6.00180797       6.72318575       7.48880947       0.00000000 NULL
P        9.57547035       2.91846751       5.55913624       0.00000000 NULL
P        9.46299602       7.15172032       1.32827974       0.00000000 NULL
P        5.88933364       8.39467956       3.31066579       0.00000000 NULL
P        4.83165351       6.62988108       2.07143548       0.00000000 NULL
P        8.40531589       8.91651881       2.56751005       0.00000000 NULL
P        6.70373037       6.87993179       0.42608196       0.00000000 NULL
P       10.27739275       8.66646810       4.21286357       0.00000000 NULL
P        7.59091915       5.68899706       2.12210228       0.00000000 NULL
P       11.16458153       9.85740283       2.51684325       0.00000000 NULL
20
Lattice="6.6997603032729245 5.956489215813876e-17 1.4379301467147127e-16 3.3498801516364622 8.785206769123182 0.23278325569996414 3.3498801516364636 3.2016794570751532 8.184332268091579" Properties=species:S:1:pos:R:3:initial_magmoms:R:1:castep_labels:S:1 n_minim_iter=14 pbc="T T T"
P        6.74221489      10.44511287       7.52728471       0.00000000 NULL
P        6.74221489       7.53521646       5.09838856       0.00000000 NULL
P        3.30742557       4.63301056       3.06047798       0.00000000 NULL
P        3.30742557       1.36043255       1.14807978       0.00000000 NULL
P        6.59828612       5.38291752       5.36985851       0.00000000 NULL
P        9.94816627       3.81220505       7.02303152       0.00000000 NULL
P        6.80123449       4.08671544       7.21579097       0.00000000 NULL
P        3.45135434       5.10840713       5.17709905       0.00000000 NULL
P        7.76979747       6.07523662       7.58528773       0.00000000 NULL
P        4.41991732       3.11988595       4.80760230       0.00000000 NULL
P        5.62972314       6.40560213       7.11481137       0.00000000 NULL
P        8.97960329       2.78952044       5.27807865       0.00000000 NULL
P        8.86853252       6.79599837       1.27906176       0.00000000 NULL
P        5.51865237       7.98265151       3.16227925       0.00000000 NULL
P        4.53098809       6.30220347       1.98227929       0.00000000 NULL
P        7.88086824       8.47644641       2.45906172       0.00000000 NULL
P        6.28441490       6.53404176       0.42772293       0.00000000 NULL
P        9.63429505       8.24460811       4.01361808       0.00000000 NULL
P        7.11510571       5.41249550       2.02492656       0.00000000 NULL
P       10.46498586       9.36615437       2.41641445       0.00000000 NULL
20
Lattice="6.676568809915044 7.114762300977635e-17 1.5262012660718646e-16 3.338284404957522 8.828663046861688 0.25124843955200615 3.3382844049575233 3.2338019377478737 8.218938009306104" Properties=species:S:1:pos:R:3:initial_magmoms:R:1:castep_labels:S:1 n_minim_iter=15 pbc="T T T"
P        6.71880884      10.50989386       7.57373022       0.00000000 NULL
P        6.71880884       7.58380361       5.13154945       0.00000000 NULL
P        3.29604438       4.66090204       3.07910649       0.00000000 NULL
P        3.29604438       1.37033044       1.15598672       0.00000000 NULL
P        6.57622004       5.41982813       5.39869594       0.00000000 NULL
P        9.91450444       3.84520629       7.05533529       0.00000000 NULL
P        6.77691758       4.12070480       7.24878859       0.00000000 NULL
P        3.43863318       5.14432963       5.20524263       0.00000000 NULL
P        7.74236406       6.11957012       7.62377235       0.00000000 NULL
P        4.40407966       3.14546430       4.83025887       0.00000000 NULL
P        5.61077356       6.45118584       7.15151558       0.00000000 NULL
P        8.94905796       2.81384859       5.30251565       0.00000000 NULL
P        8.83644132       6.83192023       1.29638384       0.00000000 NULL
P        5.49815692       8.02797530       3.18995781       0.00000000 NULL
P        4.51669630       6.33635959       2.00211599       0.00000000 NULL
P        7.85498070       8.52353594       2.48422567       0.00000000 NULL
P        6.26286176       6.56707243       0.44181221       0.00000000 NULL
P        9.60114617       8.29282311       4.04452944       0.00000000 NULL
P        7.09027586       5.44262924       2.04314138       0.00000000 NULL
P       10.42856026       9.41726629       2.44320028       0.00000000 NULL
20
Lattice="6.636749760298002 7.700827150849704e-17 1.629559999095572e-16 3.318374880149001 8.859400604523785 0.2641227321705886 3.3183748801490025 3.256347409203171 8.24347872197542" Properties=species:S:1:pos:R:3:initial_magmoms:R:1:castep_labels:S:1 n_minim_iter=16 pbc="T T T"
P        6.67857471      10.55441698       7.60605668       0.00000000 NULL
P        6.67857471       7.61920503       5.15534549       0.00000000 NULL
P        3.27654993       4.67978314       3.09130207       0.00000000 NULL
P        3.27654993       1.37809086       1.16249865       0.00000000 NULL
P        6.53822121       5.44607480       5.41885886       0.00000000 NULL
P        9.85659609       3.86814661       7.07842058       0.00000000 NULL
P        6.73527832       4.14448518       7.27246378       0.00000000 NULL
P        3.41690344       5.16973623       5.22481567       0.00000000 NULL
P        7.69537878       6.14999597       7.65118737       0.00000000 NULL
P        4.37700390       3.16422544       4.84609208       0.00000000 NULL
P        5.57812074       6.48320643       7.17665949       0.00000000 NULL
P        8.89649562       2.83101498       5.32061995       0.00000000 NULL
P        8.78134374       6.85749706       1.30773605       0.00000000 NULL
P        5.46296886       8.05977755       3.21018740       0.00000000 NULL
P        4.49215579       6.35981728       2.01648608       0.00000000 NULL
P        7.81053067       8.55745732       2.50143737       0.00000000 NULL
P        6.22587799       6.59057421       0.45121488       0.00000000 NULL
P        9.54425287       8.32670039       4.06670857       0.00000000 NULL
P        7.04762153       5.46354868       2.05622159       0.00000000 NULL
P       10.36599641       9.45372592       2.46170187       0.00000000 NULL
