4
Lattice="2.804019999999998 -3.214472268258397e-17 0.0 -0.46832601778493677 4.282186630620587 0.0 0.0 0.0 7.45162" Properties=species:S:1:pos:R:3:initial_magmoms:R:1:castep_labels:S:1 n_minim_iter=1 pbc="T T T"
P        0.28310276       1.68849017       1.00897021       0.00000000 NULL
P        0.28310276       1.68849017       6.44264979       0.00000000 NULL
P       -0.13782129       3.70052138       1.00897021       0.00000000 NULL
P       -0.13782129       3.70052138       6.44264979       0.00000000 NULL
4
Lattice="2.803052473172136 -0.0003076267333287049 0.0 -0.4686342171195669 4.29044259294078 0.0 0.0 0.0 7.459990616642625" Properties=species:S:1:pos:R:3:initial_magmoms:R:1:castep_labels:S:1 n_minim_iter=2 pbc="T T T"
P        0.28288251       1.69152312       1.01039170       0.00000000 NULL
P        0.28288251       1.69152312       6.44959892       0.00000000 NULL
P       -0.13824239       3.70779773       1.01039170       0.00000000 NULL
P       -0.13824239       3.70779773       6.44959892       0.00000000 NULL
4
Lattice="2.760792162974481 -0.013526718928710048 0.0 -0.4817635874816821 4.654497839538874 0.0 0.0 0.0 7.821830157584682" Properties=species:S:1:pos:R:3:initial_magmoms:R:1:castep_labels:S:1 n_minim_iter=3 pbc="T T T"
P        0.27327420       1.82506041       1.07214713       0.00000000 NULL
P        0.27327420       1.82506041       6.74968303       0.00000000 NULL
P       -0.15622928       4.02895031       1.07214713       0.00000000 NULL
P       -0.15622928       4.02895031       6.74968303       0.00000000 NULL
4
Lattice="2.6784317787079828 -0.005836683415345641 0.0 -0.4562638841803169 4.909073651241473 0.0 0.0 0.0 7.96978448392817" Properties=species:S:1:pos:R:3:initial_magmoms:R:1:castep_labels:S:1 n_minim_iter=4 pbc="T T T"
P        0.27005586       1.92433443       1.09785464       0.00000000 NULL
P        0.27005586       1.92433443       6.87192985       0.00000000 NULL
P       -0.14249880       4.25206760       1.09785464       0.00000000 NULL
P       -0.14249880       4.25206760       6.87192985       0.00000000 NULL
4
Lattice="2.5751055185500467 0.021601121959788763 0.0 -0.3971044704445572 5.076851485218084 0.0 0.0 0.0 8.095389029207508" Properties=species:S:1:pos:R:3:initial_magmoms:R:1:castep_labels:S:1 n_minim_iter=5 pbc="T T T"
P        0.27528081       1.99340025       1.12011427       0.00000000 NULL
P        0.27528081       1.99340025       6.97527475       0.00000000 NULL
P       -0.10034490       4.40133421       1.12011427       0.00000000 NULL
P       -0.10034490       4.40133421       6.97527475       0.00000000 NULL
4
Lattice="2.53239937923881 0.05710425096447502 0.0 -0.33575276092477224 5.052176923923005 0.0 0.0 0.0 8.108741367988369" Properties=species:S:1:pos:R:3:initial_magmoms:R:1:castep_labels:S:1 n_minim_iter=6 pbc="T T T"
P        0.29072927       1.98818551       1.12324878       0.00000000 NULL
P        0.29072927       1.98818551       6.98549259       0.00000000 NULL
P       -0.04977301       4.38479857       1.12324878       0.00000000 NULL
P       -0.04977301       4.38479857       6.98549259       0.00000000 NULL
