12
Lattice="3.054399999999997 -6.830153740458114e-17 -6.895438724402152e-17 -1.0104003493536196 9.290155797274123 -2.9708664626627388e-15 -1.0104003493536198 -2.1736104293614056 9.032298292184405" Properties=species:S:1:pos:R:3:initial_magmoms:R:1:castep_labels:S:1 n_minim_iter=1 pbc="T T T"
P       -0.01360264       0.19089019       8.11324568       0.00000000 NULL
P        1.51359736       7.84339206       2.08384154       0.00000000 NULL
P        1.97570921       0.87832301       4.39342821       0.00000000 NULL
P        0.44850921       4.06598370       1.88187122       0.00000000 NULL
P       -0.07382679       3.24221958       8.67945608       0.00000000 NULL
P        1.45337321       7.67996959       5.18295405       0.00000000 NULL
P        1.00290998      -0.14700471       2.24649336       0.00000000 NULL
P        2.53010998       2.21853428       0.38268583       0.00000000 NULL
P       -0.85843663       6.77564256       6.86174669       0.00000000 NULL
P        0.66876337       5.08600034       8.19301533       0.00000000 NULL
P        1.77372037       2.60342483       2.23246078       0.00000000 NULL
P        0.24652037       1.56137536       3.05349128       0.00000000 NULL
12
Lattice="3.061613543875117 -0.00065354304479957 -0.0008294748957868837 -1.0147743946515215 9.307574356340563 -0.0011540603428861662 -1.0147743946515217 -2.1788078641481863 9.04896336724764" Properties=species:S:1:pos:R:3:initial_magmoms:R:1:castep_labels:S:1 n_minim_iter=2 pbc="T T T"
P       -0.01585975       0.19002340       8.12732914       0.00000000 NULL
P        1.51494702       7.85696064       2.08587917       0.00000000 NULL
P        1.97877809       0.87869303       4.40086478       0.00000000 NULL
P        0.44797131       4.07345406       1.88438564       0.00000000 NULL
P       -0.07716283       3.24676639       8.69440155       0.00000000 NULL
P        1.45364394       7.69310965       5.19045670       0.00000000 NULL
P        1.00476947      -0.14788254       2.25012133       0.00000000 NULL
P        2.53557625       2.22194017       0.38226646       0.00000000 NULL
P       -0.86369097       6.78735185       6.87322156       0.00000000 NULL
P        0.66711580       5.09409033       8.20666965       0.00000000 NULL
P        1.77689811       2.60790739       2.23551824       0.00000000 NULL
P        0.24609133       1.56362594       3.05897951       0.00000000 NULL
12
Lattice="3.188211341229254 -0.012555344511011202 -0.015935206047573328 -1.092853247638474 9.612746048315813 -0.01823179776537909 -1.0928532476384742 -2.2668123722339084 9.341669050921702" Properties=species:S:1:pos:R:3:initial_magmoms:R:1:castep_labels:S:1 n_minim_iter=3 pbc="T T T"
P       -0.05692061       0.17746851       8.37504875       0.00000000 NULL
P        1.53718506       8.09479111       2.12407865       0.00000000 NULL
P        2.03150473       0.88612357       4.53185539       0.00000000 NULL
P        0.43739906       4.20502128       1.92981056       0.00000000 NULL
P       -0.13782466       3.32908527       8.95846147       0.00000000 NULL
P        1.45628101       7.92462935       5.32471977       0.00000000 NULL
P        1.03712047      -0.16279616       2.31365043       0.00000000 NULL
P        2.63122614       2.28124438       0.37507778       0.00000000 NULL
P       -0.95803211       6.99479383       7.07750079       0.00000000 NULL
P        0.63607356       5.23821365       8.44859606       0.00000000 NULL
P        1.83201656       2.68728805       2.28978692       0.00000000 NULL
P        0.23791089       1.60376661       3.15640694       0.00000000 NULL
12
Lattice="3.1980296637833523 -0.016549885072445158 -0.021005065090948377 -1.1082508185830064 9.669031135165184 0.014842075936314324 -1.1082508185830067 -2.247825474165937 9.404130157420333" Properties=species:S:1:pos:R:3:initial_magmoms:R:1:castep_labels:S:1 n_minim_iter=4 pbc="T T T"
P       -0.07011265       0.20671966       8.43363992       0.00000000 NULL
P        1.52890218       8.14291489       2.16369150       0.00000000 NULL
P        2.02683770       0.90101926       4.56758041       0.00000000 NULL
P        0.42782287       4.23826685       1.95518630       0.00000000 NULL
P       -0.15845399       3.37670873       9.03453230       0.00000000 NULL
P        1.44056084       7.98544906       5.38628469       0.00000000 NULL
P        1.03783013      -0.15925057       2.32673429       0.00000000 NULL
P        2.63684497       2.29113825       0.37905124       0.00000000 NULL
P       -0.98023108       7.06071422       7.15393303       0.00000000 NULL
P        0.61878375       5.29510383       8.52803462       0.00000000 NULL
P        1.83252816       2.71542505       2.31129861       0.00000000 NULL
P        0.23351333       1.62009530       3.19133097       0.00000000 NULL
12
Lattice="3.189919686911423 -0.018290762020273268 -0.02321458095431495 -1.1108630156117374 9.694527022332023 0.062449447389087274 -1.1108630156117376 -2.207504745236233 9.440057040080031" Properties=species:S:1:pos:R:3:initial_magmoms:R:1:castep_labels:S:1 n_minim_iter=5 pbc="T T T"
P       -0.07527798       0.24918248       8.47221733       0.00000000 NULL
P        1.51968186       8.16961610       2.21289690       0.00000000 NULL
P        2.01484099       0.92097766       4.59653127       0.00000000 NULL
P        0.41988115       4.26261494       1.98246910       0.00000000 NULL
P       -0.16872093       3.42817990       9.09462263       0.00000000 NULL
P        1.42623892       8.03095842       5.44928176       0.00000000 NULL
P        1.03476366      -0.15132883       2.33458671       0.00000000 NULL
P        2.62972350       2.29604884       0.38748557       0.00000000 NULL
P       -0.98583171       7.11604264       7.22418684       0.00000000 NULL
P        0.60912814       5.34959209       8.59715982       0.00000000 NULL
P        1.82726864       2.74248698       2.33273670       0.00000000 NULL
P        0.23230880       1.63547714       3.22376238       0.00000000 NULL
12
Lattice="3.1650873446252734 -0.017339954084381087 -0.02200781833965141 -1.0997564934866335 9.713264069364472 0.16986722187978423 -1.099756493486634 -2.107452349935162 9.483406473785085" Properties=species:S:1:pos:R:3:initial_magmoms:R:1:castep_labels:S:1 n_minim_iter=6 pbc="T T T"
P       -0.07031451       0.34625507       8.52813990       0.00000000 NULL
P        1.51222916       8.20174990       2.32096268       0.00000000 NULL
P        1.99400867       0.96649682       4.64909496       0.00000000 NULL
P        0.41146500       4.30259418       2.03841974       0.00000000 NULL
P       -0.16899178       3.53313129       9.19687081       0.00000000 NULL
P        1.41355190       8.10628861       5.57584642       0.00000000 NULL
P        1.02949162      -0.13028900       2.34542220       0.00000000 NULL
P        2.61203529       2.30213632       0.41107998       0.00000000 NULL
P       -0.97184645       7.21399412       7.35565760       0.00000000 NULL
P        0.61069722       5.45497152       8.72375605       0.00000000 NULL
P        1.82081540       2.79577098       2.37623425       0.00000000 NULL
P        0.23827172       1.66482516       3.28514114       0.00000000 NULL
12
Lattice="3.1599419713379677 -0.006229830115873476 -0.007906881921938294 -1.064262232891586 9.717902368607549 0.34676239803254016 -1.0642622328915865 -1.936552294382079 9.529304057359123" Properties=species:S:1:pos:R:3:initial_magmoms:R:1:castep_labels:S:1 n_minim_iter=7 pbc="T T T"
P       -0.02976324       0.51037682       8.60201654       0.00000000 NULL
P        1.55020775       8.24073165       2.50486439       0.00000000 NULL
P        2.00166011       1.04600330       4.73686530       0.00000000 NULL
P        0.42168913       4.36377124       2.12920452       0.00000000 NULL
P       -0.12670905       3.70027415       9.34607506       0.00000000 NULL
P        1.45326194       8.21780032       5.78030973       0.00000000 NULL
P        1.03917469      -0.08981255       2.36069743       0.00000000 NULL
P        2.61914567       2.31307239       0.46105736       0.00000000 NULL
P       -0.90952672       7.35957626       7.55616205       0.00000000 NULL
P        0.67044427       5.62140409       8.91925974       0.00000000 NULL
P        1.85134148       2.88244232       2.44969855       0.00000000 NULL
P        0.27137049       1.71041689       3.37954475       0.00000000 NULL
12
Lattice="3.1531059588474863 0.010904566145606889 0.013840043038025942 -1.0098854910863397 9.576645243687734 0.5653715034397088 -1.0098854910863406 -1.6909610837328564 9.443115464381956" Properties=species:S:1:pos:R:3:initial_magmoms:R:1:castep_labels:S:1 n_minim_iter=8 pbc="T T T"
P        0.03370907       0.71323392       8.57204927       0.00000000 NULL
P        1.61026205       8.17270103       2.70595304       0.00000000 NULL
P        2.01851736       1.13320347       4.78245918       0.00000000 NULL
P        0.44196438       4.37913027       2.21377847       0.00000000 NULL
P       -0.05937017       3.85597744       9.39446057       0.00000000 NULL
P        1.51718281       8.23698026       5.95388551       0.00000000 NULL
P        1.04849784      -0.03510519       2.34377707       0.00000000 NULL
P        2.62505082       2.29238903       0.52116088       0.00000000 NULL
P       -0.81430846       7.43276429       7.69733054       0.00000000 NULL
P        0.76224452       5.75009777       9.03431891       0.00000000 NULL
P        1.89817468       2.94177995       2.50875229       0.00000000 NULL
P        0.32162170       1.74538115       3.44017870       0.00000000 NULL
12
Lattice="3.2047903763502825 0.014063372343193006 0.017849190503373576 -1.0173750640931465 9.663956296204336 0.5568116587604873 -1.0173750640931474 -1.7197114395562185 9.52600037176876" Properties=species:S:1:pos:R:3:initial_magmoms:R:1:castep_labels:S:1 n_minim_iter=9 pbc="T T T"
P        0.04567626       0.71146783       8.64280870       0.00000000 NULL
P        1.64807145       8.24348908       2.72279607       0.00000000 NULL
P        2.05433124       1.13475657       4.83289448       0.00000000 NULL
P        0.45193605       4.42622290       2.22508419       0.00000000 NULL
P       -0.04991681       3.87651071       9.46964918       0.00000000 NULL
P        1.55247838       8.30685718       5.99344525       0.00000000 NULL
P        1.06665121      -0.03800299       2.36180571       0.00000000 NULL
P        2.66904640       2.31217466       0.52456624       0.00000000 NULL
P       -0.81042706       7.49291269       7.75586871       0.00000000 NULL
P        0.79196813       5.79451768       9.10849854       0.00000000 NULL
P        1.94001651       2.97398798       2.52555700       0.00000000 NULL
P        0.33762132       1.75260434       3.47341998       0.00000000 NULL
12
Lattice="3.185177788153398 0.016755672322164565 0.021266249658473877 -1.0026983838209151 9.609636808032585 0.5820873633762919 -1.002698383820916 -1.6824281994038401 9.479102311651026" Properties=species:S:1:pos:R:3:initial_magmoms:R:1:castep_labels:S:1 n_minim_iter=10 pbc="T T T"
P        0.05572055       0.73473665       8.60762086       0.00000000 NULL
P        1.64830945       8.20517987       2.73889470       0.00000000 NULL
P        2.04639980       1.14179783       4.82108725       0.00000000 NULL
P        0.45381091       4.41174981       2.22745895       0.00000000 NULL
P       -0.03846356       3.88137380       9.44010586       0.00000000 NULL
P        1.55412534       8.27834221       5.99296967       0.00000000 NULL
P        1.06143229      -0.03102134       2.35048287       0.00000000 NULL
P        2.65402119       2.30087875       0.53041343       0.00000000 NULL
P       -0.79048844       7.47362816       7.74481744       0.00000000 NULL
P        0.80210046       5.78963128       9.08887214       0.00000000 NULL
P        1.93561573       2.96991373       2.52396350       0.00000000 NULL
P        0.34302683       1.75066218       3.46737745       0.00000000 NULL
12
Lattice="3.1870767190222593 0.01918009779607316 0.024343323285552523 -0.9959525057570755 9.600877834669003 0.5933007740220829 -0.9959525057570762 -1.6694766980184246 9.473210045146644" Properties=species:S:1:pos:R:3:initial_magmoms:R:1:castep_labels:S:1 n_minim_iter=11 pbc="T T T"
P        0.06478020       0.74673566       8.60523480       0.00000000 NULL
P        1.65831856       8.20126486       2.75154093       0.00000000 NULL
P        2.05125778       1.14587012       4.82688029       0.00000000 NULL
P        0.45771942       4.41521705       2.23123507       0.00000000 NULL
P       -0.02912647       3.88843756       9.44161073       0.00000000 NULL
P        1.56441189       8.27936482       6.00172799       0.00000000 NULL
P        1.06307764      -0.02793157       2.34850091       0.00000000 NULL
P        2.65661600       2.29944111       0.53449227       0.00000000 NULL
P       -0.77767608       7.47715284       7.75237039       0.00000000 NULL
P        0.81586228       5.79736214       9.09560469       0.00000000 NULL
P        1.94378823       2.97546946       2.52706416       0.00000000 NULL
P        0.35024987       1.75116469       3.47196590       0.00000000 NULL
12
Lattice="3.2273558836327 0.07488684003126318 0.09504615545222786 -0.8398412458273187 9.41898734202806 0.828902945001928 -0.8398412458273193 -1.3978571241978617 9.351491758101858" Properties=species:S:1:pos:R:3:initial_magmoms:R:1:castep_labels:S:1 n_minim_iter=12 pbc="T T T"
P        0.27331844       1.00319071       8.55986941       0.00000000 NULL
P        1.88699638       8.12500941       3.02561513       0.00000000 NULL
P        2.16264678       1.23408227       4.95889537       0.00000000 NULL
P        0.54896884       4.49507562       2.31253485       0.00000000 NULL
P        0.18408330       4.03598270       9.47483537       0.00000000 NULL
P        1.79776125       8.30499963       6.18830283       0.00000000 NULL
P        1.09756954       0.03644168       2.30405450       0.00000000 NULL
P        2.71124748       2.26902037       0.62203110       0.00000000 NULL
P       -0.48120162       7.55594464       7.91797553       0.00000000 NULL
P        1.13247632       5.96778926       9.24630746       0.00000000 NULL
P        2.12981733       3.10019119       2.59833507       0.00000000 NULL
P        0.51613938       1.76342299       3.57454963       0.00000000 NULL
12
Lattice="3.214624436044961 0.11381260272465439 0.14445061811226345 -0.71723442974568 9.316110092503493 0.7045610101714254 -0.7172344297456806 -1.494677716094691 9.22237778437368" Properties=species:S:1:pos:R:3:initial_magmoms:R:1:castep_labels:S:1 n_minim_iter=13 pbc="T T T"
P        0.41159427       0.92023165       8.43033236       0.00000000 NULL
P        2.01890649       8.03794053       2.93935323       0.00000000 NULL
P        2.23830991       1.18120494       4.93814945       0.00000000 NULL
P        0.63099769       4.46781432       2.23156905       0.00000000 NULL
P        0.35042398       3.89129406       9.29809425       0.00000000 NULL
P        1.95773620       8.18647970       6.03098042       0.00000000 NULL
P        1.11621216       0.02444179       2.27176272       0.00000000 NULL
P        2.72352437       2.25989536       0.62751123       0.00000000 NULL
P       -0.27126252       7.40336951       7.72972517       0.00000000 NULL
P        1.33604970       5.83992474       9.07862464       0.00000000 NULL
P        2.20380680       3.08671967       2.55114967       0.00000000 NULL
P        0.59649458       1.70123630       3.52570987       0.00000000 NULL
12
Lattice="3.24945245143012 0.11502381743118541 0.14598788822854702 -0.7250716041775955 9.342428807866936 0.7355190316855388 -0.7250716041775962 -1.4707367343174829 9.255209221533718" Properties=species:S:1:pos:R:3:initial_magmoms:R:1:castep_labels:S:1 n_minim_iter=14 pbc="T T T"
P        0.41935890       0.95288982       8.46519734       0.00000000 NULL
P        2.04408513       8.06480241       2.98003091       0.00000000 NULL
P        2.26119802       1.19471598       4.97160813       0.00000000 NULL
P        0.63647180       4.49657754       2.25176474       0.00000000 NULL
P        0.34872926       3.92606895       9.34578667       0.00000000 NULL
P        1.97345549       8.22531772       6.07671729       0.00000000 NULL
P        1.12409537       0.02970660       2.27310028       0.00000000 NULL
P        2.74882159       2.26056960       0.63371148       0.00000000 NULL
P       -0.27137638       7.44793903       7.78590182       0.00000000 NULL
P        1.35334985       5.88471987       9.13586934       0.00000000 NULL
P        2.23222431       3.10864862       2.57034914       0.00000000 NULL
P        0.60749808       1.71416657       3.55075360       0.00000000 NULL
12
Lattice="3.241471297960708 0.11922351614985939 0.151318133397137 -0.7096577698232764 9.306173544545024 0.7499302614499491 -0.709657769823277 -1.4482428871716226 9.22333204313847" Properties=species:S:1:pos:R:3:initial_magmoms:R:1:castep_labels:S:1 n_minim_iter=15 pbc="T T T"
P        0.43532574       0.96889424       8.44150318       0.00000000 NULL
P        2.05606139       8.04012121       2.99271253       0.00000000 NULL
P        2.26493637       1.19951748       4.96823873       0.00000000 NULL
P        0.64420072       4.49007841       2.25297951       0.00000000 NULL
P        0.36530388       3.92682343       9.32468518       0.00000000 NULL
P        1.98603953       8.20672525       6.07517885       0.00000000 NULL
P        1.12266029       0.03416640       2.26336349       0.00000000 NULL
P        2.74339594       2.25215946       0.63843452       0.00000000 NULL
P       -0.24606258       7.43431417       7.77770252       0.00000000 NULL
P        1.37467307       5.88203579       9.12336938       0.00000000 NULL
P        2.23750402       3.10809933       2.57121658       0.00000000 NULL
P        0.61676837       1.71303860       3.54775740       0.00000000 NULL
12
Lattice="3.2453817044100197 0.12325468088031448 0.1564344757273037 -0.698690289353167 9.293422388674285 0.754941268479483 -0.6986902893531677 -1.4403875877326784 9.212107229633808" Properties=species:S:1:pos:R:3:initial_magmoms:R:1:castep_labels:S:1 n_minim_iter=16 pbc="T T T"
P        0.45067831       0.97711998       8.43359975       0.00000000 NULL
P        2.07336916       8.03252816       3.00141897       0.00000000 NULL
P        2.27561245       1.20161778       4.97312041       0.00000000 NULL
P        0.65292160       4.49231761       2.25360551       0.00000000 NULL
P        0.38062390       3.92691270       9.31795004       0.00000000 NULL
P        2.00331475       8.20217175       6.07624800       0.00000000 NULL
P        1.12509665       0.03628310       2.25856800       0.00000000 NULL
P        2.74778751       2.24901742       0.64192864       0.00000000 NULL
P       -0.22481227       7.43085853       7.77655898       0.00000000 NULL
P        1.39787858       5.88374809       9.12230029       0.00000000 NULL
P        2.24970129       3.11195975       2.57352482       0.00000000 NULL
P        0.62701044       1.71236397       3.54949256       0.00000000 NULL
12
Lattice="3.2575285146329858 0.1389266249229197 0.1763252606648204 -0.6550412386364484 9.245422610358776 0.765987325929625 -0.6550412386364489 -1.41841765428379 9.16802417021433" Properties=species:S:1:pos:R:3:initial_magmoms:R:1:castep_labels:S:1 n_minim_iter=17 pbc="T T T"
P        0.50982433       1.00104049       8.40077178       0.00000000 NULL
P        2.13858859       8.00285067       3.02694019       0.00000000 NULL
P        2.31546107       1.20675071       4.98857769       0.00000000 NULL
P        0.68669681       4.49830893       2.25226711       0.00000000 NULL
P        0.44109369       3.92057185       9.28675790       0.00000000 NULL
P        2.06985795       8.18116492       6.07273054       0.00000000 NULL
P        1.13423242       0.04284804       2.24088644       0.00000000 NULL
P        2.76299667       2.23812660       0.65411981       0.00000000 NULL
P       -0.14174644       7.41204691       7.76360718       0.00000000 NULL
P        1.48701782       5.88339309       9.11092587       0.00000000 NULL
P        2.29448420       3.12445494       2.57974231       0.00000000 NULL
P        0.66571994       1.70764943       3.55315024       0.00000000 NULL
12
Lattice="3.268462449318672 0.15736052285438498 0.19972150929345944 -0.6025903048006258 9.200380197992681 0.7570964447850864 -0.6025903048006265 -1.4165232224692152 9.12215176230518" Properties=species:S:1:pos:R:3:initial_magmoms:R:1:castep_labels:S:1 n_minim_iter=18 pbc="T T T"
P        0.57837556       1.00916350       8.36253545       0.00000000 NULL
P        2.21260679       7.97299205       3.03758974       0.00000000 NULL
P        2.36056970       1.20495212       5.00249381       0.00000000 NULL
P        0.72633848       4.50304267       2.24207626       0.00000000 NULL
P        0.51376580       3.89799136       9.24362194       0.00000000 NULL
P        2.14799702       8.15372632       6.05238243       0.00000000 NULL
P        1.14534055       0.04612195       2.22333093       0.00000000 NULL
P        2.77957178       2.22950931       0.66489353       0.00000000 NULL
P       -0.04377641       7.38155342       7.73180550       0.00000000 NULL
P        1.59045481       5.86882559       9.08553626       0.00000000 NULL
P        2.34358852       3.13556684       2.58143200       0.00000000 NULL
P        0.70935730       1.69747542       3.55265092       0.00000000 NULL
12
Lattice="3.2785044816713063 0.17499349350982002 0.22210122339678373 -0.5522804005443288 9.154870702241585 0.7487315974202282 -0.5522804005443295 -1.4140080743337637 9.075948311083295" Properties=species:S:1:pos:R:3:initial_magmoms:R:1:castep_labels:S:1 n_minim_iter=19 pbc="T T T"
P        0.64453443       1.01774964       8.32351418       0.00000000 NULL
P        2.28378667       7.94186144       3.04799765       0.00000000 NULL
P        2.40320997       1.20347315       5.01544820       0.00000000 NULL
P        0.76395773       4.50716704       2.23247941       0.00000000 NULL
P        0.58221379       3.87563622       9.19939216       0.00000000 NULL
P        2.22146603       8.12477108       6.03148923       0.00000000 NULL
P        1.15534558       0.04902203       2.20468650       0.00000000 NULL
P        2.79459782       2.21952033       0.67454074       0.00000000 NULL
P        0.05071384       7.35109276       7.69940106       0.00000000 NULL
P        1.68996608       5.85326390       9.05952929       0.00000000 NULL
P        2.39087242       3.14621875       2.58315347       0.00000000 NULL
P        0.75162018       1.68784041       3.55222009       0.00000000 NULL
12
Lattice="3.307282884515595 0.2275869855124568 0.2888527275939332 -0.4018338230366393 9.022816760675118 0.7027077647130633 -0.4018338230366399 -1.4278579132106646 8.936791498014797" Properties=species:S:1:pos:R:3:initial_magmoms:R:1:castep_labels:S:1 n_minim_iter=20 pbc="T T T"
P        0.84388043       1.02863897       8.19931393       0.00000000 NULL
P        2.49752187       7.84485747       3.06290146       0.00000000 NULL
P        2.52931044       1.18966575       5.05260687       0.00000000 NULL
P        0.87566900       4.52022810       2.19437348       0.00000000 NULL
P        0.78154020       3.78975978       9.05037715       0.00000000 NULL
P        2.43518164       8.02628132       5.94650720       0.00000000 NULL
P        1.18245636       0.05246744       2.14330676       0.00000000 NULL
P        2.83609780       2.18533488       0.69690531       0.00000000 NULL
P        0.33570400       7.24885818       7.58193630       0.00000000 NULL
P        1.98934544       5.78927598       8.96602495       0.00000000 NULL
P        2.53391572       3.17727470       2.58178276       0.00000000 NULL
P        0.88027428       1.65294486       3.54871760       0.00000000 NULL
12
Lattice="3.2367047906251707 0.21477017521835043 0.2725856699492684 -0.41746963816653754 8.919845870394111 0.6221996566493905 -0.41746963816653815 -1.482039420703012 8.817842248521107" Properties=species:S:1:pos:R:3:initial_magmoms:R:1:castep_labels:S:1 n_minim_iter=21 pbc="T T T"
P        0.82027756       1.00042183       8.04387934       0.00000000 NULL
P        2.43862996       7.69393066       2.99096707       0.00000000 NULL
P        2.44624940       1.11339110       5.03841201       0.00000000 NULL
P        0.82789700       4.53068155       2.12502828       0.00000000 NULL
P        0.67522565       3.65490669       8.84766819       0.00000000 NULL
P        2.29357804       7.85434182       5.75983592       0.00000000 NULL
P        1.12949290       0.02298418       2.03234728       0.00000000 NULL
P        2.74784530       2.07794496       0.63414575       0.00000000 NULL
P        0.31712638       7.12669579       7.41934827       0.00000000 NULL
P        1.93547877       5.65337458       8.80107917       0.00000000 NULL
P        2.50041736       3.16804479       2.50475112       0.00000000 NULL
P        0.88206497       1.58661923       3.52985437       0.00000000 NULL
12
Lattice="3.4098445377058653 0.2570746283819548 0.32627835654187715 -0.3460728008593614 8.946879121571902 0.5342912055280294 -0.34607280085936204 -1.5738328338857976 8.823557293932348" Properties=species:S:1:pos:R:3:initial_magmoms:R:1:castep_labels:S:1 n_minim_iter=22 pbc="T T T"
P        0.96570759       0.95175119       8.04048706       0.00000000 NULL
P        2.67062986       7.72317219       2.96969999       0.00000000 NULL
P        2.64667086       1.10625421       5.08337530       0.00000000 NULL
P        0.94174859       4.55491443       2.10176316       0.00000000 NULL
P        0.84289200       3.59693122       8.81736769       0.00000000 NULL
P        2.54781427       7.85959904       5.72322656       0.00000000 NULL
P        1.21794513       0.02271141       2.04181556       0.00000000 NULL
P        2.92286740       2.10836648       0.66294219       0.00000000 NULL
P        0.49756264       7.09774906       7.36024411       0.00000000 NULL
P        2.20248491       5.62383578       8.78595368       0.00000000 NULL
P        2.69314687       3.20011455       2.51576836       0.00000000 NULL
P        0.98822460       1.56867512       3.53676535       0.00000000 NULL
12
Lattice="3.3161841757417654 0.24330975029863608 0.3088080140685948 -0.35695657491495314 8.810724946411149 0.5757517928733731 -0.35695657491495375 -1.501667141293265 8.700882714131291" Properties=species:S:1:pos:R:3:initial_magmoms:R:1:castep_labels:S:1 n_minim_iter=23 pbc="T T T"
P        0.91634860       0.97886107       7.93562172       0.00000000 NULL
P        2.57444069       7.60799218       2.96278697       0.00000000 NULL
P        2.55939496       1.10685724       5.01536101       0.00000000 NULL
P        0.90130287       4.49552929       2.09517137       0.00000000 NULL
P        0.78625572       3.58330782       8.71454063       0.00000000 NULL
P        2.44434780       7.75593106       5.67718776       0.00000000 NULL
P        1.17957509       0.02715552       2.00550932       0.00000000 NULL
P        2.83766718       2.06514573       0.65003323       0.00000000 NULL
P        0.45083593       7.02430429       7.29839174       0.00000000 NULL
P        2.10892802       5.57400156       8.69134071       0.00000000 NULL
P        2.60771337       3.15796737       2.48712600       0.00000000 NULL
P        0.94962128       1.55757134       3.49782175       0.00000000 NULL
12
Lattice="3.3134936148112692 0.2423876308975585 0.30763766285730393 -0.35887121909893993 8.840119320959804 0.5699997506717343 -0.35887121909894054 -1.5141369084926417 8.728115417827205" Properties=species:S:1:pos:R:3:initial_magmoms:R:1:castep_labels:S:1 n_minim_iter=24 pbc="T T T"
P        0.91276931       0.97765554       7.95583413       0.00000000 NULL
P        2.56951611       7.62746456       2.96575882       0.00000000 NULL
P        2.55586952       1.10581553       5.03220867       0.00000000 NULL
P        0.89912272       4.51261412       2.09868558       0.00000000 NULL
P        0.77925356       3.58663961       8.73357247       0.00000000 NULL
P        2.43600036       7.77319407       5.68429476       0.00000000 NULL
P        1.17850440       0.02440932       2.00652585       0.00000000 NULL
P        2.83525121       2.06631552       0.64701592       0.00000000 NULL
P        0.44843047       7.04247863       7.31371651       0.00000000 NULL
P        2.10517728       5.58418769       8.71201096       0.00000000 NULL
P        2.60539132       3.16836697       2.49015457       0.00000000 NULL
P        0.94864451       1.55854371       3.50922647       0.00000000 NULL
12
Lattice="3.3073192736195556 0.241047634170489 0.30593694298217833 -0.3609044242669525 8.83672107754267 0.5663503376922001 -0.3609044242669531 -1.516889944054977 8.723957645754352" Properties=species:S:1:pos:R:3:initial_magmoms:R:1:castep_labels:S:1 n_minim_iter=25 pbc="T T T"
P        0.90766681       0.97718589       7.94868908       0.00000000 NULL
P        2.56132645       7.61995772       2.96278012       0.00000000 NULL
P        2.54930602       1.10311475       5.03282982       0.00000000 NULL
P        0.89564639       4.51451992       2.09705546       0.00000000 NULL
P        0.77023748       3.58067209       8.72353819       0.00000000 NULL
P        2.42389711       7.76416451       5.67529481       0.00000000 NULL
P        1.17617544       0.02255199       2.00017043       0.00000000 NULL
P        2.82983507       2.05990106       0.64287281       0.00000000 NULL
P        0.44494124       7.03795221       7.30659317       0.00000000 NULL
P        2.09860088       5.57765110       8.70509317       0.00000000 NULL
P        2.60014403       3.16885833       2.48587877       0.00000000 NULL
P        0.94648440       1.55494163       3.50955414       0.00000000 NULL
12
Lattice="3.3064801518083105 0.2396069645157366 0.304108449325566 -0.3650087316837355 8.823679045488268 0.5509000681569287 -0.3650087316837361 -1.5288599420475113 8.707662720873293" Properties=species:S:1:pos:R:3:initial_magmoms:R:1:castep_labels:S:1 n_minim_iter=26 pbc="T T T"
P        0.90176925       0.97070180       7.92522707       0.00000000 NULL
P        2.55500933       7.59794367       2.95007236       0.00000000 NULL
P        2.54599288       1.09410182       5.03119037       0.00000000 NULL
P        0.89275280       4.51575506       2.08882336       0.00000000 NULL
P        0.75556586       3.55943325       8.69104174       0.00000000 NULL
P        2.40880594       7.73681894       5.64612805       0.00000000 NULL
P        1.17620204       0.01766029       1.98473949       0.00000000 NULL
P        2.82944212       2.04532259       0.63359227       0.00000000 NULL
P        0.44221289       7.01898058       7.27909950       0.00000000 NULL
P        2.09545297       5.55463899       8.67930120       0.00000000 NULL
P        2.59982235       3.16817204       2.47338498       0.00000000 NULL
P        0.94658228       1.54367552       3.50687799       0.00000000 NULL
12
Lattice="3.308710875938845 0.23228494640764083 0.29481536564042765 -0.38801705194810093 8.680601747602404 0.4877275816200107 -0.38801705194810154 -1.5568033308383706 8.553776258673201" Properties=species:S:1:pos:R:3:initial_magmoms:R:1:castep_labels:S:1 n_minim_iter=27 pbc="T T T"
P        0.87199958       0.94082246       7.75135911       0.00000000 NULL
P        2.52635502       7.43223142       2.87569606       0.00000000 NULL
P        2.53330646       1.04869519       4.97708605       0.00000000 NULL
P        0.87895102       4.47743722       2.03666483       0.00000000 NULL
P        0.68713218       3.44305651       8.47566935       0.00000000 NULL
P        2.34148762       7.55099198       5.47794441       0.00000000 NULL
P        1.17756080      -0.00209035       1.90187400       0.00000000 NULL
P        2.83191623       1.96571714       0.59035532       0.00000000 NULL
P        0.42329914       6.87483185       7.09811336       0.00000000 NULL
P        2.07765457       5.40874165       8.49216174       0.00000000 NULL
P        2.59961695       3.13679504       2.39917159       0.00000000 NULL
P        0.94526151       1.48252426       3.46365478       0.00000000 NULL
12
Lattice="3.371017595265466 0.22775692153764138 0.2890684098935187 -0.4224004946769244 8.930287237791234 0.435772931256849 -0.42240049467692514 -1.6657346455939108 8.784375691393283" Properties=species:S:1:pos:R:3:initial_magmoms:R:1:castep_labels:S:1 n_minim_iter=28 pbc="T T T"
P        0.85290716       0.91945290       7.92658983       0.00000000 NULL
P        2.53841596       7.60533425       2.89304475       0.00000000 NULL
P        2.56443781       1.03684240       5.10785195       0.00000000 NULL
P        0.87892901       4.60961079       2.05860970       0.00000000 NULL
P        0.64591430       3.47718851       8.65118090       0.00000000 NULL
P        2.33142309       7.71138219       5.54931987       0.00000000 NULL
P        1.19577114      -0.02615603       1.92751115       0.00000000 NULL
P        2.88127994       1.99400933       0.57008242       0.00000000 NULL
P        0.39391007       7.02428369       7.22408746       0.00000000 NULL
P        2.07941886       5.49398808       8.66406597       0.00000000 NULL
P        2.63634489       3.21844282       2.42680513       0.00000000 NULL
P        0.95083610       1.49255175       3.55237522       0.00000000 NULL
12
Lattice="3.300519718479088 0.22145161151403706 0.28106572909636124 -0.4182576951535334 8.699336126100192 0.46490354320788624 -0.41825769515353417 -1.583377133156456 8.56665052360351" Properties=species:S:1:pos:R:3:initial_magmoms:R:1:castep_labels:S:1 n_minim_iter=29 pbc="T T T"
P        0.82946064       0.93120011       7.74081238       0.00000000 NULL
P        2.47972050       7.41881209       2.85699836       0.00000000 NULL
P        2.50777124       1.02965520       4.98966906       0.00000000 NULL
P        0.85751138       4.49954242       2.02797216       0.00000000 NULL
P        0.62414383       3.42447874       8.45926024       0.00000000 NULL
P        2.27440369       7.53396828       5.44916825       0.00000000 NULL
P        1.16989726      -0.01917142       1.87991272       0.00000000 NULL
P        2.82015712       1.94294520       0.56173527       0.00000000 NULL
P        0.37845654       6.87293154       7.08051244       0.00000000 NULL
P        2.02871640       5.38665721       8.47932127       0.00000000 NULL
P        2.57851929       3.14594104       2.37921208       0.00000000 NULL
P        0.92825943       1.46639553       3.47475183       0.00000000 NULL
12
Lattice="3.312279058687053 0.22290153484853648 0.2829059674958866 -0.4177376675810787 8.693083387410528 0.45736068094990884 -0.4177376675810795 -1.5892476874348875 8.558806538351863" Properties=species:S:1:pos:R:3:initial_magmoms:R:1:castep_labels:S:1 n_minim_iter=30 pbc="T T T"
P        0.83394994       0.92643090       7.73144227       0.00000000 NULL
P        2.49008947       7.41154286       2.85108932       0.00000000 NULL
P        2.51874540       1.02643358       4.98783294       0.00000000 NULL
P        0.86260587       4.49778605       2.02349026       0.00000000 NULL
P        0.62778333       3.41628221       8.44742418       0.00000000 NULL
P        2.28392285       7.52510344       5.43935006       0.00000000 NULL
P        1.17486097      -0.02081462       1.87705283       0.00000000 NULL
P        2.83100050       1.94127411       0.56038867       0.00000000 NULL
P        0.38424733       6.86372441       7.06783783       0.00000000 NULL
P        2.04038686       5.37721355       8.46832435       0.00000000 NULL
P        2.58934275       3.14525554       2.37558289       0.00000000 NULL
P        0.93320322       1.46230250       3.47231612       0.00000000 NULL
