5
Lattice="4.382420000000001 -3.9744188921604533e-16 -9.072284042944178e-16 1.868850476406446 4.291831105919172 6.664817688777005e-16 0.8514328086977987 1.1190575511883216 5.6507653921837315" Properties=species:S:1:pos:R:3:initial_magmoms:R:1:castep_labels:S:1 n_minim_iter=1 pbc="T T T"
P        3.16486019       1.06852293       1.99488067       0.00000000 NULL
P        4.04412493       1.94795672       4.15855704       0.00000000 NULL
P        4.13380409       2.93217689       0.36359002       0.00000000 NULL
P        2.03250693       2.40174800       3.08576262       0.00000000 NULL
P        4.46206892       4.82765670       4.20979479       0.00000000 NULL
5
Lattice="4.384162777931521 0.00029308063297467753 -0.0008560243270385022 1.869880693488499 4.293818554572343 -0.000810123926973521 0.8507424686031754 1.1190141087079621 5.651357411873098" Properties=species:S:1:pos:R:3:initial_magmoms:R:1:castep_labels:S:1 n_minim_iter=2 pbc="T T T"
P        3.16594083       1.06885234       1.99431325       0.00000000 NULL
P        4.04515481       1.94878600       4.15814748       0.00000000 NULL
P        4.13562752       2.93363979       0.36275075       0.00000000 NULL
P        2.03287125       2.40280518       3.08569110       0.00000000 NULL
P        4.46304739       4.82945711       4.20896907       0.00000000 NULL
5
Lattice="4.4695190359850345 0.014821044283923297 -0.043676105919495424 1.9205078925772192 4.390868716440966 -0.04150065278650305 0.8158226094404898 1.1159938915285779 5.679040644098644" Properties=species:S:1:pos:R:3:initial_magmoms:R:1:castep_labels:S:1 n_minim_iter=3 pbc="T T T"
P        3.21868864       1.08467677       1.96532180       0.00000000 NULL
P        4.09487356       1.98891665       4.13609527       0.00000000 NULL
P        4.22490068       3.00504601       0.32039924       0.00000000 NULL
P        2.05022646       2.45415410       3.08088461       0.00000000 NULL
P        4.51009521       4.91666018       4.16631150       0.00000000 NULL
5
Lattice="4.476965294470603 0.013643924107310832 -0.08856106900615343 1.922530506276686 4.394575341200527 -0.09086702487292714 0.7590932972145598 1.0770666517255187 5.619248535113144" Properties=species:S:1:pos:R:3:initial_magmoms:R:1:castep_labels:S:1 n_minim_iter=4 pbc="T T T"
P        3.20892042       1.06750104       1.90628652       0.00000000 NULL
P        4.05780781       1.96375663       4.04433657       0.00000000 NULL
P        4.22863948       3.00181390       0.26331641       0.00000000 NULL
P        2.02419224       2.43982529       3.02352373       0.00000000 NULL
P        4.46452361       4.88741215       4.05047650       0.00000000 NULL
5
Lattice="4.563865618852646 0.012387132688584017 -0.3657376224183296 1.9583576921960422 4.426925588256112 -0.4141286747392447 0.41825962307827746 0.8154062294256724 5.294644105707998" Properties=species:S:1:pos:R:3:initial_magmoms:R:1:castep_labels:S:1 n_minim_iter=5 pbc="T T T"
P        3.18339251       0.96155289       1.55436145       0.00000000 NULL
P        3.86833467       1.79965864       3.50483372       0.00000000 NULL
P        4.29009535       2.98497845      -0.09678631       0.00000000 NULL
P        1.88645325       2.34138637       2.68087164       0.00000000 NULL
P        4.23212133       4.70863515       3.35572387       0.00000000 NULL
5
Lattice="4.579175231981626 0.02250498788781205 -0.34413451933016903 1.9747950723327974 4.464650308988582 -0.3749604152345621 0.45167304225383764 0.8655240961281804 5.511800010540222" Properties=species:S:1:pos:R:3:initial_magmoms:R:1:castep_labels:S:1 n_minim_iter=6 pbc="T T T"
P        3.21319936       0.98092440       1.62022099       0.00000000 NULL
P        3.90501710       1.85291131       3.69759092       0.00000000 NULL
P        4.31450473       3.00880450      -0.00983204       0.00000000 NULL
P        1.92372572       2.39279196       2.82826518       0.00000000 NULL
P        4.26477721       4.80095455       3.54412628       0.00000000 NULL
5
Lattice="4.512049771606489 0.02785876816296671 -0.345880602559335 1.951413030474213 4.376492451043798 -0.39155605718059244 0.4377473259369933 0.8221125668296123 5.358009830901925" Properties=species:S:1:pos:R:3:initial_magmoms:R:1:castep_labels:S:1 n_minim_iter=7 pbc="T T T"
P        3.16325919       0.95740789       1.56530101       0.00000000 NULL
P        3.84133575       1.79979549       3.57741208       0.00000000 NULL
P        4.25390984       2.95086986      -0.03221673       0.00000000 NULL
P        1.89943905       2.33063864       2.73588611       0.00000000 NULL
P        4.20066128       4.69075298       3.41322245       0.00000000 NULL
5
Lattice="4.543578993299208 0.026160972219330725 -0.346553574657682 1.9631957321638622 4.387356066031037 -0.39274797526722427 0.44257166385246893 0.8236126196820002 5.354258691052494" Properties=species:S:1:pos:R:3:initial_magmoms:R:1:castep_labels:S:1 n_minim_iter=8 pbc="T T T"
P        3.18769533       0.95726971       1.55934535       0.00000000 NULL
P        3.87039704       1.80223832       3.57489998       0.00000000 NULL
P        4.28174021       2.95605791      -0.03009156       0.00000000 NULL
P        1.91294353       2.33861997       2.73360323       0.00000000 NULL
P        4.22693312       4.70103599       3.40805737       0.00000000 NULL
