10
Lattice="5.622529999999999 -8.980034683488159e-16 -1.9503043088888633e-16 1.9790339022634391 6.415920879951053 5.351518909570456e-16 2.380164212978867 1.59650438877085 6.1395386103102325" Properties=species:S:1:pos:R:3:initial_magmoms:R:1:castep_labels:S:1 n_minim_iter=1 pbc="T T T"
P        7.84601541       5.25887645       5.20808097       0.00000000 NULL
P        2.47435889       4.71767075       3.27077105       0.00000000 NULL
P        3.06542253       4.97140764       1.35199455       0.00000000 NULL
P        6.04142987       2.80853114       4.35138264       0.00000000 NULL
P        3.59411877       1.78766537       5.51009899       0.00000000 NULL
P        7.68422105       6.60323999       2.40938457       0.00000000 NULL
P        6.73337198       6.82471735       4.44699613       0.00000000 NULL
P        5.03227580       5.02419778       2.99045690       0.00000000 NULL
P        3.14081510       1.32639244       3.59568341       0.00000000 NULL
P        3.62795236       6.33047837       3.64720335       0.00000000 NULL
10
Lattice="5.6338776314188665 -0.0015393100804834271 -0.0002062000612501946 1.981271552503139 6.425993244155248 0.003447604293156639 2.384305718256489 1.6018624768212384 6.158383464498243" Properties=species:S:1:pos:R:3:initial_magmoms:R:1:castep_labels:S:1 n_minim_iter=2 pbc="T T T"
P        7.86027443       5.26821402       5.22650979       0.00000000 NULL
P        2.47777697       4.72590986       3.28291448       0.00000000 NULL
P        3.07034307       4.97941773       1.35808312       0.00000000 NULL
P        6.05258597       2.81396074       4.36548606       0.00000000 NULL
P        3.60074373       1.79285796       5.52762263       0.00000000 NULL
P        7.69764465       6.61366644       2.41949678       0.00000000 NULL
P        6.74502181       6.83675510       4.46366526       0.00000000 NULL
P        5.04102732       5.03250908       3.00169703       0.00000000 NULL
P        3.14646903       1.32996115       3.60642553       0.00000000 NULL
P        3.63362537       6.34215182       3.66156923       0.00000000 NULL
10
Lattice="5.8865989477560285 -0.03461984156193451 -0.005018520191309886 2.0324766114720014 6.646949017405582 0.08258176231575669 2.4766413027826637 1.7230836220883907 6.580110770655226" Properties=species:S:1:pos:R:3:initial_magmoms:R:1:castep_labels:S:1 n_minim_iter=3 pbc="T T T"
P        8.17882054       5.47683664       5.64047936       0.00000000 NULL
P        2.55473262       4.90799064       3.55571741       0.00000000 NULL
P        3.18103149       5.15590648       1.49521450       0.00000000 NULL
P        6.30136761       2.93614223       4.68148950       0.00000000 NULL
P        3.74850584       1.91039694       5.92029219       0.00000000 NULL
P        7.99788319       6.84451837       2.64715241       0.00000000 NULL
P        7.00569058       7.10424018       4.83857199       0.00000000 NULL
P        5.23682479       5.21666785       3.25420734       0.00000000 NULL
P        3.27242432       1.41081159       3.84660532       0.00000000 NULL
P        3.76138338       6.60065510       3.98501802       0.00000000 NULL
10
Lattice="6.008712380292963 -0.022538746792987247 -0.012245201170544038 2.089244289206598 6.672065709055248 0.12744800522933436 2.5238743199425193 1.7787572500107691 6.718423286856027" Properties=species:S:1:pos:R:3:initial_magmoms:R:1:castep_labels:S:1 n_minim_iter=4 pbc="T T T"
P        8.35448796       5.54895413       5.78700855       0.00000000 NULL
P        2.61053759       4.94161011       3.65671452       0.00000000 NULL
P        3.25838134       5.18870836       1.55005588       0.00000000 NULL
P        6.43094206       2.98970444       4.78569843       0.00000000 NULL
P        3.82586559       1.96428127       6.04834713       0.00000000 NULL
P        8.17624450       6.90193359       2.73120707       0.00000000 NULL
P        7.15992070       7.18073685       4.97788591       0.00000000 NULL
P        5.35053502       5.26180466       3.34578556       0.00000000 NULL
P        3.33660908       1.45464326       3.92464921       0.00000000 NULL
P        3.85538203       6.65785146       4.10774017       0.00000000 NULL
10
Lattice="6.101914694774284 0.004683696650145951 -0.02526987249380745 2.153113683130337 6.611866033344909 0.16799283221387695 2.556836721468077 1.81610238320862 6.78510198037185" Properties=species:S:1:pos:R:3:initial_magmoms:R:1:castep_labels:S:1 n_minim_iter=5 pbc="T T T"
P        8.49853582       5.56659055       5.86536897       0.00000000 NULL
P        2.66126374       4.91385364       3.71727025       0.00000000 NULL
P        3.33174213       5.16036925       1.58541055       0.00000000 NULL
P        6.53183168       3.01764760       4.83324270       0.00000000 NULL
P        3.88517395       1.99863503       6.10807383       0.00000000 NULL
P        8.33304479       6.88404322       2.77722043       0.00000000 NULL
P        7.29242178       7.18016434       5.05914771       0.00000000 NULL
P        5.44680299       5.24776399       3.39737937       0.00000000 NULL
P        3.38420978       1.48826633       3.96060141       0.00000000 NULL
P        3.94594120       6.63348337       4.18366236       0.00000000 NULL
10
Lattice="6.161840220449015 0.043155512926594475 -0.03993157188481909 2.218106982634112 6.512310715937104 0.19495294709278121 2.5771188623691317 1.8349832030387978 6.80745739597398" Properties=species:S:1:pos:R:3:initial_magmoms:R:1:castep_labels:S:1 n_minim_iter=6 pbc="T T T"
P        8.60538973       5.55383576       5.89544406       0.00000000 NULL
P        2.70509051       4.85415608       3.74653566       0.00000000 NULL
P        3.39606237       5.10249910       1.60202915       0.00000000 NULL
P        6.60086575       3.03011069       4.84421698       0.00000000 NULL
P        3.92513141       2.01637571       6.12602131       0.00000000 NULL
P        8.45836806       6.83135025       2.79138518       0.00000000 NULL
P        7.39782302       7.13797361       5.09513037       0.00000000 NULL
P        5.52237037       5.20394238       3.41850894       0.00000000 NULL
P        3.41502938       1.51122548       3.97018651       0.00000000 NULL
P        4.02610588       6.56566413       4.22130781       0.00000000 NULL
10
Lattice="6.240117713157771 0.1031652998088027 -0.06359039005293489 2.3141370361000404 6.381074680822434 0.21594931211545734 2.6014610975081713 1.8505354951582755 6.839678474277952" Properties=species:S:1:pos:R:3:initial_magmoms:R:1:castep_labels:S:1 n_minim_iter=7 pbc="T T T"
P        8.75054192       5.53616590       5.92498694       0.00000000 NULL
P        2.76686117       4.77066909       3.77872420       0.00000000 NULL
P        3.48762123       5.02621502       1.61339878       0.00000000 NULL
P        6.69146687       3.04704320       4.85340959       0.00000000 NULL
P        3.97537193       2.03396001       6.15095253       0.00000000 NULL
P        8.63266290       6.76703631       2.79196750       0.00000000 NULL
P        7.54467794       7.08081260       5.12922671       0.00000000 NULL
P        5.62810159       5.14541903       3.43677521       0.00000000 NULL
P        3.45468607       1.53778964       3.98197726       0.00000000 NULL
P        4.13825630       6.47155411       4.26013346       0.00000000 NULL
10
Lattice="6.351686137530589 0.19510974044503054 -0.10899025316456551 2.4583258533636725 6.214338405283073 0.22636075755874913 2.6252238273669293 1.8651697296105076 6.901253385179551" Properties=species:S:1:pos:R:3:initial_magmoms:R:1:castep_labels:S:1 n_minim_iter=8 pbc="T T T"
P        8.95355947       5.52098555       5.95861370       0.00000000 NULL
P        2.85245338       4.65956214       3.82340577       0.00000000 NULL
P        3.62105247       4.93177964       1.61670563       0.00000000 NULL
P        6.81328683       3.07742213       4.86382457       0.00000000 NULL
P        4.03566154       2.05619640       6.19804918       0.00000000 NULL
P        8.88526586       6.69882617       2.76672335       0.00000000 NULL
P        7.75419626       7.01512833       5.16487366       0.00000000 NULL
P        5.78050198       5.07396798       3.45358995       0.00000000 NULL
P        3.50513046       1.57191434       4.00270957       0.00000000 NULL
P        4.29577197       6.35068556       4.30794646       0.00000000 NULL
10
Lattice="6.536972521597316 0.3425209716449251 -0.21172820250190422 2.6917557918238684 6.041750578532602 0.22220664648558563 2.6333324708729604 1.9023448696477778 6.998740449904882" Properties=species:S:1:pos:R:3:initial_magmoms:R:1:castep_labels:S:1 n_minim_iter=9 pbc="T T T"
P        9.26179259       5.56280726       5.97213086       0.00000000 NULL
P        2.97307433       4.54340972       3.88845946       0.00000000 NULL
P        3.83255654       4.85081211       1.60006130       0.00000000 NULL
P        6.98866385       3.16390651       4.85220319       0.00000000 NULL
P        4.10254321       2.11189643       6.26738116       0.00000000 NULL
P        9.29056779       6.68852309       2.67094183       0.00000000 NULL
P        8.07789547       7.00488848       5.18411553       0.00000000 NULL
P        6.01903503       5.02646156       3.45520636       0.00000000 NULL
P        3.56992956       1.63529653       4.02440637       0.00000000 NULL
P        4.52832068       6.24566791       4.36644025       0.00000000 NULL
10
Lattice="6.632890533531166 0.42129810358343345 -0.26369213957365994 2.8154105954659467 6.022980305800642 0.17666255584712745 2.639563484004744 1.8980431997707459 6.8744754413105165" Properties=species:S:1:pos:R:3:initial_magmoms:R:1:castep_labels:S:1 n_minim_iter=10 pbc="T T T"
P        9.43318094       5.59990386       5.80268069       0.00000000 NULL
P        3.02562192       4.49967379       3.81949062       0.00000000 NULL
P        3.94885759       4.85591162       1.51684712       0.00000000 NULL
P        7.06851435       3.21620250       4.70671829       0.00000000 NULL
P        4.13511646       2.12376277       6.15188057       0.00000000 NULL
P        9.51592354       6.75411789       2.49543369       0.00000000 NULL
P        8.26152196       7.06438927       5.02704068       0.00000000 NULL
P        6.14953823       5.02665966       3.34584283       0.00000000 NULL
P        3.59985912       1.65859522       3.92812010       0.00000000 NULL
P        4.64596091       6.23724477       4.26622910       0.00000000 NULL
10
Lattice="6.6432087832826525 0.47736541745083644 -0.341075247933736 2.8830213713612927 5.977469688558293 0.22448841839331565 2.5753529346421717 1.977372487382511 6.8048663222128765" Properties=species:S:1:pos:R:3:initial_magmoms:R:1:castep_labels:S:1 n_minim_iter=11 pbc="T T T"
P        9.44254440       5.67038913       5.71488590       0.00000000 NULL
P        2.99842888       4.48866202       3.83619460       0.00000000 NULL
P        3.99706653       4.85122815       1.49725151       0.00000000 NULL
P        7.01878916       3.30538640       4.60616153       0.00000000 NULL
P        4.07397771       2.20813728       6.09501183       0.00000000 NULL
P        9.59255765       6.80429951       2.40919950       0.00000000 NULL
P        8.30938504       7.15703303       4.97393513       0.00000000 NULL
P        6.17428817       5.03431479       3.31006895       0.00000000 NULL
P        3.55536377       1.71762575       3.85920639       0.00000000 NULL
P        4.66107311       6.25647468       4.28212195       0.00000000 NULL
10
Lattice="6.602478239064072 0.48603073723749857 -0.29848139839217885 2.8785729963921067 6.045682213814294 0.2205088821888054 2.607081608596324 1.9791008589806687 6.782477075371571" Properties=species:S:1:pos:R:3:initial_magmoms:R:1:castep_labels:S:1 n_minim_iter=12 pbc="T T T"
P        9.44516214       5.70642595       5.73160174       0.00000000 NULL
P        2.99417895       4.51547776       3.83840040       0.00000000 NULL
P        3.99993446       4.90110546       1.48579419       0.00000000 NULL
P        6.99643890       3.33365298       4.61293710       0.00000000 NULL
P        4.09019613       2.21786580       6.09597628       0.00000000 NULL
P        9.57756169       6.88616932       2.41770021       0.00000000 NULL
P        8.32012317       7.25376690       4.97752567       0.00000000 NULL
P        6.16985846       5.07038677       3.31568210       0.00000000 NULL
P        3.55128157       1.72412329       3.84981882       0.00000000 NULL
P        4.67104088       6.31537047       4.28274930       0.00000000 NULL
10
Lattice="6.560357435861262 0.5077525049862475 -0.3129674412135718 2.888534107443485 6.007039177508404 0.2579204529190311 2.5796005368946044 2.017457170277463 6.7520866107811255" Properties=species:S:1:pos:R:3:initial_magmoms:R:1:castep_labels:S:1 n_minim_iter=13 pbc="T T T"
P        9.39490876       5.72997454       5.71593284       0.00000000 NULL
P        2.97681288       4.51017625       3.84870244       0.00000000 NULL
P        3.99715946       4.88475857       1.49672406       0.00000000 NULL
P        6.94465178       3.36617169       4.58969654       0.00000000 NULL
P        4.05317112       2.25722714       6.07299382       0.00000000 NULL
P        9.54607114       6.88426722       2.42363972       0.00000000 NULL
P        8.29329923       7.27099925       4.98191023       0.00000000 NULL
P        6.14376827       5.06793930       3.31828184       0.00000000 NULL
P        3.52010900       1.74904702       3.82783583       0.00000000 NULL
P        4.65855432       6.30835166       4.29938844       0.00000000 NULL
10
Lattice="6.570441454023218 0.505015712775374 -0.3181184322465945 2.888960529627756 6.028196267473556 0.26797056158587707 2.5774676198710775 2.033155070701787 6.768242647572" Properties=species:S:1:pos:R:3:initial_magmoms:R:1:castep_labels:S:1 n_minim_iter=14 pbc="T T T"
P        9.40412667       5.74984685       5.73264031       0.00000000 NULL
P        2.96962372       4.52754563       3.86747986       0.00000000 NULL
P        4.00245068       4.90185941       1.50174343       0.00000000 NULL
P        6.94570637       3.38170052       4.59906222       0.00000000 NULL
P        4.05212285       2.27332857       6.09111840       0.00000000 NULL
P        9.55874463       6.90948745       2.43032721       0.00000000 NULL
P        8.30271627       7.30861864       5.00002364       0.00000000 NULL
P        6.14825583       5.08412019       3.32937854       0.00000000 NULL
P        3.51836554       1.75849550       3.83387150       0.00000000 NULL
P        4.65878624       6.33535291       4.32093332       0.00000000 NULL
10
Lattice="6.557068564754517 0.5112155729208208 -0.3187710538533727 2.8913282201382504 6.029643172562933 0.27713418840794096 2.5728543293982358 2.0445853521608774 6.758270452513353" Properties=species:S:1:pos:R:3:initial_magmoms:R:1:castep_labels:S:1 n_minim_iter=15 pbc="T T T"
P        9.39213105       5.76249179       5.72925502       0.00000000 NULL
P        2.96331636       4.53209144       3.87087080       0.00000000 NULL
P        4.00326890       4.90596638       1.50260936       0.00000000 NULL
P        6.93043407       3.39482681       4.59304438       0.00000000 NULL
P        4.04383319       2.28631994       6.08560693       0.00000000 NULL
P        9.55104893       6.92170620       2.43141996       0.00000000 NULL
P        8.29805603       7.32920250       5.00130257       0.00000000 NULL
P        6.14138841       5.09025706       3.32957128       0.00000000 NULL
P        3.50950757       1.76657806       3.82655145       0.00000000 NULL
P        4.65687113       6.34383052       4.32537884       0.00000000 NULL
10
Lattice="6.535390446796802 0.5215314209585737 -0.32312094073359615 2.895469404701821 6.043911807434116 0.298094823618604 2.5618567033556623 2.073122166263194 6.744896183995391" Properties=species:S:1:pos:R:3:initial_magmoms:R:1:castep_labels:S:1 n_minim_iter=16 pbc="T T T"
P        9.37120793       5.79571929       5.72754161       0.00000000 NULL
P        2.94618347       4.54941452       3.88467882       0.00000000 NULL
P        4.00705143       4.92265533       1.50498515       0.00000000 NULL
P        6.90015631       3.42686330       4.58390483       0.00000000 NULL
P        4.02621781       2.31844205       6.08180534       0.00000000 NULL
P        9.54084976       6.95774706       2.43403478       0.00000000 NULL
P        8.29197387       7.38791589       5.00972336       0.00000000 NULL
P        6.12876103       5.10999712       3.33268343       0.00000000 NULL
P        3.49058020       1.78610304       3.81380573       0.00000000 NULL
P        4.65233002       6.37339216       4.34177169       0.00000000 NULL
10
Lattice="6.366268712704566 0.5875163990149054 -0.3630276257018414 2.911237529211008 6.122572059760635 0.4120762693402966 2.4654231004695206 2.2373621934918466 6.6102614301018265" Properties=species:S:1:pos:R:3:initial_magmoms:R:1:castep_labels:S:1 n_minim_iter=17 pbc="T T T"
P        9.17777189       5.97909536       5.64914147       0.00000000 NULL
P        2.80587402       4.64211026       3.93803923       0.00000000 NULL
P        4.01999887       5.01429930       1.49067736       0.00000000 NULL
P        6.66585410       3.61330862       4.47977905       0.00000000 NULL
P        3.88287559       2.51223038       6.01096433       0.00000000 NULL
P        9.43275324       7.16625333       2.40190984       0.00000000 NULL
P        8.21164226       7.75384441       5.01005267       0.00000000 NULL
P        6.00968502       5.21620183       3.30347155       0.00000000 NULL
P        3.34318177       1.89896173       3.69700003       0.00000000 NULL
P        4.59928275       6.53824293       4.39915853       0.00000000 NULL
10
Lattice="6.675503115755361 0.40968526918780696 -0.5258455435408419 2.8171579793323476 6.25524137687187 0.1861067700961714 2.3680458676777847 2.0492748910283294 6.734634796381535" Properties=species:S:1:pos:R:3:initial_magmoms:R:1:castep_labels:S:1 n_minim_iter=18 pbc="T T T"
P        9.28883899       5.72877776       5.50111151       0.00000000 NULL
P        2.64506285       4.60456072       3.89494039       0.00000000 NULL
P        4.02842165       5.02029788       1.30501675       0.00000000 NULL
P        6.78088927       3.39176034       4.41175108       0.00000000 NULL
P        3.86571541       2.32647743       6.07562149       0.00000000 NULL
P        9.59514520       7.05583708       2.07052303       0.00000000 NULL
P        8.23935583       7.67534630       4.80622965       0.00000000 NULL
P        6.04251168       5.12746016       3.11418464       0.00000000 NULL
P        3.35277796       1.76221400       3.69674964       0.00000000 NULL
P        4.50928597       6.50693369       4.28753492       0.00000000 NULL
10
Lattice="6.405446003392598 0.47249095796973645 -0.4728809141828056 2.7937706695487545 5.9841378851020295 0.22788686004274805 2.329392035754845 2.0250420745833613 6.453672121661491" Properties=species:S:1:pos:R:3:initial_magmoms:R:1:castep_labels:S:1 n_minim_iter=19 pbc="T T T"
P        9.01446389       5.60529128       5.32055183       0.00000000 NULL
P        2.61934657       4.44114498       3.76104246       0.00000000 NULL
P        3.94375852       4.83664411       1.29458333       0.00000000 NULL
P        6.56851289       3.34362380       4.26099494       0.00000000 NULL
P        3.76900756       2.30237601       5.83104827       0.00000000 NULL
P        9.31661371       6.84042120       2.06104093       0.00000000 NULL
P        8.03411042       7.43901527       4.67266321       0.00000000 NULL
P        5.87818770       4.97194352       3.03105400       0.00000000 NULL
P        3.25662010       1.74493712       3.55558108       0.00000000 NULL
P        4.43877783       6.27057445       4.15151421       0.00000000 NULL
10
Lattice="6.418989830648036 0.49086615445592535 -0.4840757244264003 2.8195059702254635 5.986113042549405 0.24567922047623506 2.328118880262427 2.0524994098969858 6.482662242093787" Properties=species:S:1:pos:R:3:initial_magmoms:R:1:castep_labels:S:1 n_minim_iter=20 pbc="T T T"
P        9.03824150       5.64619257       5.34929707       0.00000000 NULL
P        2.62812720       4.45491408       3.78585055       0.00000000 NULL
P        3.96865938       4.84617776       1.30821802       0.00000000 NULL
P        6.58332122       3.37507913       4.27942390       0.00000000 NULL
P        3.77301167       2.33432235       5.85760527       0.00000000 NULL
P        9.35346827       6.86772575       2.07743980       0.00000000 NULL
P        8.06798254       7.47386270       4.70514763       0.00000000 NULL
P        5.89873667       4.99425173       3.04844414       0.00000000 NULL
P        3.26134849       1.76690624       3.56856622       0.00000000 NULL
P        4.46107941       6.29008723       4.18635679       0.00000000 NULL
10
Lattice="6.422869261735231 0.5141517337362802 -0.49155996453152284 2.847442852723132 5.980936656904667 0.26193515745581686 2.328200592847755 2.0771057741670003 6.490630522496169" Properties=species:S:1:pos:R:3:initial_magmoms:R:1:castep_labels:S:1 n_minim_iter=21 pbc="T T T"
P        9.05565994       5.68422132       5.36237436       0.00000000 NULL
P        2.63624367       4.46202037       3.79809518       0.00000000 NULL
P        3.99528503       4.85027346       1.31672518       0.00000000 NULL
P        6.59357175       3.40542407       4.28574632       0.00000000 NULL
P        3.77710274       2.36595822       5.86611817       0.00000000 NULL
P        9.38435194       6.89102479       2.08796566       0.00000000 NULL
P        8.10051097       7.50451831       4.72372362       0.00000000 NULL
P        5.91582560       5.01289793       3.05465267       0.00000000 NULL
P        3.26394285       1.78851882       3.56957840       0.00000000 NULL
P        4.48556683       6.30173162       4.20879955       0.00000000 NULL
10
Lattice="6.43175512072468 0.5240622515322834 -0.4990861891580052 2.8618795056621815 5.985065789129216 0.2670884377491435 2.3265579945940233 2.088926883682017 6.483547194210186" Properties=species:S:1:pos:R:3:initial_magmoms:R:1:castep_labels:S:1 n_minim_iter=22 pbc="T T T"
P        9.06767525       5.70432675       5.35595366       0.00000000 NULL
P        2.63306210       4.46677428       3.79635465       0.00000000 NULL
P        4.01454980       4.85447906       1.31378352       0.00000000 NULL
P        6.60290220       3.41996943       4.27925052       0.00000000 NULL
P        3.78089170       2.38493957       5.86038912       0.00000000 NULL
P        9.40611891       6.90631644       2.08229509       0.00000000 NULL
P        8.12236561       7.52874147       4.72120941       0.00000000 NULL
P        5.92550052       5.02534371       3.04471720       0.00000000 NULL
P        3.26495240       1.80022436       3.56062428       0.00000000 NULL
P        4.49909627       6.31155659       4.21382830       0.00000000 NULL
10
Lattice="6.42449196748419 0.5258955986337449 -0.5053729696387997 2.8614150498830564 5.976678717346015 0.26588837150150835 2.317139017333047 2.088424562077173 6.457626942697646" Properties=species:S:1:pos:R:3:initial_magmoms:R:1:castep_labels:S:1 n_minim_iter=23 pbc="T T T"
P        9.05102934       5.69948763       5.32974029       0.00000000 NULL
P        2.61864942       4.45850151       3.78093454       0.00000000 NULL
P        4.01705121       4.84567561       1.30367019       0.00000000 NULL
P        6.59242619       3.41736505       4.25849035       0.00000000 NULL
P        3.77316923       2.38970757       5.83670435       0.00000000 NULL
P        9.39611687       6.89795238       2.06527940       0.00000000 NULL
P        8.11424318       7.52695352       4.69932305       0.00000000 NULL
P        5.91461921       5.02042700       3.02297000       0.00000000 NULL
P        3.25588616       1.80135871       3.54145757       0.00000000 NULL
P        4.49407471       6.30283374       4.20113113       0.00000000 NULL
10
Lattice="6.4294953736602425 0.5242522099481618 -0.5122238180203492 2.861300876844853 5.9788864918094715 0.2641402718422368 2.3113096492233827 2.0890568895141315 6.45317600297815" Properties=species:S:1:pos:R:3:initial_magmoms:R:1:castep_labels:S:1 n_minim_iter=24 pbc="T T T"
P        9.04904831       5.69933160       5.32050535       0.00000000 NULL
P        2.61033274       4.45830865       3.77731160       0.00000000 NULL
P        4.02016308       4.84528597       1.29852861       0.00000000 NULL
P        6.59224147       3.41671553       4.25139088       0.00000000 NULL
P        3.77038668       2.39293467       5.83174509       0.00000000 NULL
P        9.39856343       6.89788704       2.05524321       0.00000000 NULL
P        8.11443417       7.53132508       4.69128630       0.00000000 NULL
P        5.91282712       5.02129033       3.01361018       0.00000000 NULL
P        3.25294222       1.80227960       3.53558682       0.00000000 NULL
P        4.49198282       6.30414027       4.19893572       0.00000000 NULL
10
Lattice="6.4278511382484185 0.5244021841509104 -0.5164093948385713 2.8608932711932282 5.975646293108101 0.26262464912844335 2.306085732891419 2.088260421388307 6.443155304418686" Properties=species:S:1:pos:R:3:initial_magmoms:R:1:castep_labels:S:1 n_minim_iter=25 pbc="T T T"
P        9.04201768       5.69640577       5.30842982       0.00000000 NULL
P        2.60328449       4.45461266       3.77072413       0.00000000 NULL
P        4.02105179       4.84146124       1.29346853       0.00000000 NULL
P        6.58794706       3.41492747       4.24199156       0.00000000 NULL
P        3.76648868       2.39444131       5.82208138       0.00000000 NULL
P        9.39490771       6.89381092       2.04599664       0.00000000 NULL
P        8.11061418       7.52999576       4.68079905       0.00000000 NULL
P        5.90815963       5.01888843       3.00357178       0.00000000 NULL
P        3.24869449       1.80226466       3.52757472       0.00000000 NULL
P        4.48919285       6.30032942       4.19319326       0.00000000 NULL
10
Lattice="6.428111138726846 0.5240940194931945 -0.5249515787815954 2.8606331373565896 5.972281434472472 0.2597256362175315 2.2967806317129495 2.087422714076973 6.4280975097363156" Properties=species:S:1:pos:R:3:initial_magmoms:R:1:castep_labels:S:1 n_minim_iter=26 pbc="T T T"
P        9.03243554       5.69257933       5.28841992       0.00000000 NULL
P        2.59073175       4.44962174       3.76040793       0.00000000 NULL
P        4.02371641       4.83627514       1.28459076       0.00000000 NULL
P        6.58259781       3.41242107       4.22645986       0.00000000 NULL
P        3.76040698       2.39780949       5.80716572       0.00000000 NULL
P        9.39166467       6.88850535       2.02929633       0.00000000 NULL
P        8.10610137       7.53002019       4.66330030       0.00000000 NULL
P        5.90164276       5.01617200       2.98635364       0.00000000 NULL
P        3.24194734       1.80261907       3.51456308       0.00000000 NULL
P        4.48500656       6.29586166       4.18452270       0.00000000 NULL
10
Lattice="6.428250787363913 0.5246674878947365 -0.6006574308000016 2.8613366813623378 5.936845481879212 0.2334419109849632 2.2143353499651943 2.0791453299271305 6.288919662511724" Properties=species:S:1:pos:R:3:initial_magmoms:R:1:castep_labels:S:1 n_minim_iter=27 pbc="T T T"
P        8.94737181       5.65734321       5.10573948       0.00000000 NULL
P        2.48061937       4.40144304       3.66569130       0.00000000 NULL
P        4.04838550       4.78663730       1.20500751       0.00000000 NULL
P        6.53546441       3.39072071       4.08415442       0.00000000 NULL
P        3.70785170       2.42826052       5.66880722       0.00000000 NULL
P        9.36312549       6.83817148       1.87857087       0.00000000 NULL
P        8.06725217       7.52549262       4.50254483       0.00000000 NULL
P        5.84496726       4.99014186       2.83199615       0.00000000 NULL
P        3.18116561       1.80545940       3.39675345       0.00000000 NULL
P        4.45066682       6.25173599       4.10304154       0.00000000 NULL
