4
Lattice="3.58481 -4.509282106382603e-16 3.6356922730925166e-16 -0.6685751277016815 4.8682555295627905 -2.2957741671464237e-15 -0.9744746817911937 -0.9486546693052851 5.1060600444817785" Properties=species:S:1:pos:R:3:initial_magmoms:R:1:castep_labels:S:1 n_minim_iter=1 pbc="T T T"
P        3.02865122       1.02204744       1.04264367       0.00000000 NULL
P        1.42547396      -0.09286790       2.38659391       0.00000000 NULL
P       -0.74670730       3.48762089       2.86509863       0.00000000 NULL
P        1.06979220       1.88176376       3.72550191       0.00000000 NULL
4
Lattice="3.58363150163957 0.0019270082981855802 -0.0007640151415856174 -0.6657384129260092 4.866295705720523 2.479179918348881e-05 -0.9757525056627298 -0.9489900755965711 5.105155330729223" Properties=species:S:1:pos:R:3:initial_magmoms:R:1:castep_labels:S:1 n_minim_iter=2 pbc="T T T"
P        3.02803515       1.02327214       1.04175187       0.00000000 NULL
P        1.42462994      -0.09175137       2.38560011       0.00000000 NULL
P       -0.74541626       3.48567268       2.86464969       0.00000000 NULL
P        1.06964105       1.88162583       3.72443811       0.00000000 NULL
4
Lattice="3.4375705961965406 0.2495725989782392 -0.10023993593316424 -0.3021892416425069 4.622101783026334 -0.0011161694736845802 -1.1432725460887714 -0.9983792881697768 4.9885274319963315" Properties=species:S:1:pos:R:3:initial_magmoms:R:1:castep_labels:S:1 n_minim_iter=3 pbc="T T T"
P        2.95266487       1.18177417       0.92458461       0.00000000 NULL
P        1.32154423       0.05126920       2.25541529       0.00000000 NULL
P       -0.58519747       3.23584040       2.80428955       0.00000000 NULL
P        1.05030734       1.86323870       3.58464856       0.00000000 NULL
4
Lattice="3.361235720250666 0.1797456258204081 -0.05884348199319949 -0.38277927256594224 4.634119632795177 -0.013732235613556534 -1.045080210226442 -0.9843367389897997 5.016747277710548" Properties=species:S:1:pos:R:3:initial_magmoms:R:1:castep_labels:S:1 n_minim_iter=4 pbc="T T T"
P        2.87964780       1.12105201       0.96256013       0.00000000 NULL
P        1.31354034       0.04167576       2.27467861       0.00000000 NULL
P       -0.60427788       3.22572926       2.81846641       0.00000000 NULL
P        1.04170234       1.83923592       3.63765216       0.00000000 NULL
4
Lattice="3.308326934952484 0.17970743496405153 -0.06128292105268826 -0.37296352918215353 4.629312764033626 -0.03233547366529274 -1.0341623151806774 -1.0033774306280436 5.064700130345128" Properties=species:S:1:pos:R:3:initial_magmoms:R:1:castep_labels:S:1 n_minim_iter=5 pbc="T T T"
P        2.83585969       1.11575877       0.96100659       0.00000000 NULL
P        1.29081669       0.05329605       2.27980062       0.00000000 NULL
P       -0.60113118       3.18813614       2.83689516       0.00000000 NULL
P        1.02767427       1.82499717       3.67325746       0.00000000 NULL
4
Lattice="3.2380123719061507 0.15665128813777845 -0.04808833805794064 -0.39116048977683804 4.582776720443854 -0.07775578718153477 -0.9901531722063287 -1.032261764325729 5.1785746146160365" Properties=species:S:1:pos:R:3:initial_magmoms:R:1:castep_labels:S:1 n_minim_iter=6 pbc="T T T"
P        2.77666764       1.07666658       0.97623868       0.00000000 NULL
P        1.26829457       0.06249329       2.30566101       0.00000000 NULL
P       -0.60794222       3.08711448       2.87983995       0.00000000 NULL
P        1.01886642       1.77099752       3.76529424       0.00000000 NULL
4
Lattice="3.222204438483228 0.17427984096348095 -0.057040926387647024 -0.36427228904127784 4.432999765459884 -0.17917256899960474 -1.003272816378302 -1.1166301599287465 5.345766506174626" Properties=species:S:1:pos:R:3:initial_magmoms:R:1:castep_labels:S:1 n_minim_iter=7 pbc="T T T"
P        2.77243327       1.04387909       0.96784966       0.00000000 NULL
P        1.25057499       0.05855120       2.32985751       0.00000000 NULL
P       -0.60833495       2.86970959       2.91035900       0.00000000 NULL
P        1.02609746       1.64692364       3.85755632       0.00000000 NULL
4
Lattice="3.211224496818841 0.13804108267089796 -0.00648563766104755 -0.4114375835874119 4.310522021391365 -0.2785781370806227 -0.9186892311317446 -1.1759676057806756 5.426112402334227" Properties=species:S:1:pos:R:3:initial_magmoms:R:1:castep_labels:S:1 n_minim_iter=8 pbc="T T T"
P        2.76761509       0.97527897       1.01267867       0.00000000 NULL
P        1.27026818       0.01244095       2.35625346       0.00000000 NULL
P       -0.60235952       2.71018399       2.88640724       0.00000000 NULL
P        1.06824900       1.52047017       3.91146948       0.00000000 NULL
4
Lattice="3.2233126418077993 0.17488504889713619 -0.0328416380487792 -0.3636570849745865 4.280008735654352 -0.31175983070409946 -0.9692657225915303 -1.221334209506717 5.487775572733809" Properties=species:S:1:pos:R:3:initial_magmoms:R:1:castep_labels:S:1 n_minim_iter=9 pbc="T T T"
P        2.78363520       0.99811946       0.99467656       0.00000000 NULL
P        1.25702529       0.01015206       2.35561970       0.00000000 NULL
P       -0.59328781       2.65454740       2.89428326       0.00000000 NULL
P        1.06357726       1.49565503       3.93019348       0.00000000 NULL
4
Lattice="3.229057337392048 0.17780223300765582 -0.025312367181967763 -0.36076687961002374 4.241317611080337 -0.34034401372188344 -0.960874915712507 -1.2432013003669395 5.51581394509429" Properties=species:S:1:pos:R:3:initial_magmoms:R:1:castep_labels:S:1 n_minim_iter=10 pbc="T T T"
P        2.79200145       0.99036661       1.00518928       0.00000000 NULL
P        1.26189615      -0.00154508       2.35902858       0.00000000 NULL
P       -0.58637277       2.60473778       2.88883468       0.00000000 NULL
P        1.07725110       1.46350561       3.94523247       0.00000000 NULL
4
Lattice="3.245554284191455 0.19293970160377924 -0.015485027599349587 -0.3432865621361378 4.155602748660844 -0.4060300686730164 -0.9553675391044539 -1.2981357972041387 5.585979642763811" Properties=species:S:1:pos:R:3:initial_magmoms:R:1:castep_labels:S:1 n_minim_iter=11 pbc="T T T"
P        2.81477333       0.98100797       1.02523923       0.00000000 NULL
P        1.26950385      -0.02717798       2.36309999       0.00000000 NULL
P       -0.56948189       2.49091737       2.87898897       0.00000000 NULL
P        1.10602987       1.39382195       3.97995382       0.00000000 NULL
4
Lattice="3.2970680333131663 0.2240179673826147 -0.006789818378647882 -0.310688982953537 4.028747562169719 -0.5064712106584448 -0.9652099368460424 -1.3866403204846407 5.693405719846206" Properties=species:S:1:pos:R:3:initial_magmoms:R:1:castep_labels:S:1 n_minim_iter=12 pbc="T T T"
P        2.87220999       0.97845487       1.06494435       0.00000000 NULL
P        1.28471798      -0.07172083       2.34835115       0.00000000 NULL
P       -0.54768062       2.31412565       2.86423291       0.00000000 NULL
P        1.15913517       1.29910867       4.03114533       0.00000000 NULL
4
Lattice="3.327744062477655 0.21043434998429236 -0.017992241074924302 -0.33485700040128424 4.029669632446597 -0.5099557777801371 -0.9859103629825899 -1.3884799536155241 5.667403341707011" Properties=species:S:1:pos:R:3:initial_magmoms:R:1:castep_labels:S:1 n_minim_iter=13 pbc="T T T"
P        2.88578153       0.97915911       1.08814390       0.00000000 NULL
P        1.28303978      -0.09942501       2.28657770       0.00000000 NULL
P       -0.57546902       2.29248253       2.85578105       0.00000000 NULL
P        1.16073158       1.31609306       3.99689830       0.00000000 NULL
