15
Lattice="5.71977 0.0 0.0 0.0 8.112659999999998 -9.913162457640268e-16 0.0 -4.056329999999999 7.025769652265866" Properties=species:S:1:pos:R:3:initial_magmoms:R:1:castep_labels:S:1 n_minim_iter=1 pbc="T T T"
P        2.52307692       1.73487409       2.30278945       0.00000000 NULL
P        2.52307692       5.25094920       0.35104961       0.00000000 NULL
P        2.52307692       5.18316793       4.37192990       0.00000000 NULL
P        4.43364768       5.71218881       0.91302546       0.00000000 NULL
P        4.43364768       4.46586276       4.49038719       0.00000000 NULL
P        4.43364768       1.99093965       1.62235631       0.00000000 NULL
P        4.38096574       2.70201552       6.06506872       0.00000000 NULL
P        4.38096574      -2.54718094       6.33324867       0.00000000 NULL
P        4.38096574      -0.15483336       1.65322121       0.00000000 NULL
P        2.41816718       0.02153952       1.19433798       0.00000000 NULL
P        2.41816718       3.01123362       6.44725373       0.00000000 NULL
P        2.41816718      -3.03277192       6.40994689       0.00000000 NULL
P        4.65268399      -0.30568665       5.93644374       0.00000000 NULL
P        4.65268399      -0.93193735       3.79281468       0.00000000 NULL
P        4.65268399       1.23762522       4.32228019       0.00000000 NULL
15
Lattice="5.739386233333607 0.0 0.0 0.0 8.13524326598505 1.6318243210131756e-16 0.0 -4.067621632992526 7.04532733430934" Properties=species:S:1:pos:R:3:initial_magmoms:R:1:castep_labels:S:1 n_minim_iter=2 pbc="T T T"
P        2.53147761       1.73998636       2.30942861       0.00000000 NULL
P        2.53147761       5.26522665       0.35215739       0.00000000 NULL
P        2.53147761       5.19765311       4.38374064       0.00000000 NULL
P        4.44920700       5.72799643       0.91577420       0.00000000 NULL
P        4.44920700       4.47816174       4.50270262       0.00000000 NULL
P        4.44920700       1.99670795       1.62684982       0.00000000 NULL
P        4.39633219       2.70951442       6.08169607       0.00000000 NULL
P        4.39633219      -2.55403846       6.35098691       0.00000000 NULL
P        4.39633219      -0.15547473       1.65797099       0.00000000 NULL
P        2.42600116       0.02133112       1.19798576       0.00000000 NULL
P        2.42600116       3.01947038       6.46480704       0.00000000 NULL
P        2.42600116      -3.04080027       6.42786117       0.00000000 NULL
P        4.66865656      -0.30659194       5.95297454       0.00000000 NULL
P        4.66865656      -0.93450917       3.80332296       0.00000000 NULL
P        4.66865656       1.24110232       4.33435648       0.00000000 NULL
15
Lattice="6.105421903856362 0.0 0.0 0.0 8.554003024344999 5.904411277348799e-16 0.0 -4.2770015121725 7.407983923131687" Properties=species:S:1:pos:R:3:initial_magmoms:R:1:castep_labels:S:1 n_minim_iter=3 pbc="T T T"
P        2.68813002       1.83501376       2.43264750       0.00000000 NULL
P        2.68813002       5.52976204       0.37284404       0.00000000 NULL
P        2.68813002       5.46623002       4.60249165       0.00000000 NULL
P        4.73979245       6.02098987       0.96684617       0.00000000 NULL
P        4.73979245       4.70619518       4.73090636       0.00000000 NULL
P        4.73979245       2.10382078       1.71023066       0.00000000 NULL
P        4.68335149       2.84854054       6.38980214       0.00000000 NULL
P        4.68335149      -2.68099930       6.67999059       0.00000000 NULL
P        4.68335149      -0.16753995       1.74617439       0.00000000 NULL
P        2.57175326       0.01723717       1.26597030       0.00000000 NULL
P        2.57175326       3.17202092       6.78992587       0.00000000 NULL
P        2.57175326      -3.18925681       6.76007095       0.00000000 NULL
P        4.96669865      -0.32343931       6.25939540       0.00000000 NULL
P        4.96669865      -0.98207383       3.99817883       0.00000000 NULL
P        4.96669865       1.30551442       4.55839289       0.00000000 NULL
15
Lattice="6.173851769499379 0.0 0.0 0.0 8.631800709783876 7.524755238086824e-16 0.0 -4.315900354891939 7.475358695077385" Properties=species:S:1:pos:R:3:initial_magmoms:R:1:castep_labels:S:1 n_minim_iter=4 pbc="T T T"
P        2.71789847       1.85470341       2.45584029       0.00000000 NULL
P        2.71789847       5.57762936       0.37829939       0.00000000 NULL
P        2.71789847       5.51536958       4.64121828       0.00000000 NULL
P        4.79505382       6.07440643       0.97623601       0.00000000 NULL
P        4.79505382       4.74915274       4.77247153       0.00000000 NULL
P        4.79505382       2.12414319       1.72665041       0.00000000 NULL
P        4.73859395       2.87438182       6.44502970       0.00000000 NULL
P        4.73859395      -2.70284956       6.74213078       0.00000000 NULL
P        4.73859395      -0.17153096       1.76355618       0.00000000 NULL
P        2.59632013       0.01445618       1.28252734       0.00000000 NULL
P        2.59632013       3.19797144       6.84661370       0.00000000 NULL
P        2.59632013      -3.21242633       6.82157561       0.00000000 NULL
P        5.02209458      -0.32720791       6.31383959       0.00000000 NULL
P        5.02209458      -0.98844073       4.03506780       0.00000000 NULL
P        5.02209458       1.31564994       4.60180927       0.00000000 NULL
15
Lattice="6.18641057361839 0.0 0.0 0.0 8.635095796367446 -1.2343810536911387e-15 0.0 -4.317547898183722 7.478212323766425" Properties=species:S:1:pos:R:3:initial_magmoms:R:1:castep_labels:S:1 n_minim_iter=5 pbc="T T T"
P        2.72387684       1.85839970       2.45746566       0.00000000 NULL
P        2.72387684       5.57766869       0.38068778       0.00000000 NULL
P        2.72387684       5.51657660       4.64005815       0.00000000 NULL
P        4.80632373       6.07549546       0.97652407       0.00000000 NULL
P        4.80632373       4.75165385       4.77327063       0.00000000 NULL
P        4.80632373       2.12549568       1.72841689       0.00000000 NULL
P        4.75050318       2.87559657       6.44459109       0.00000000 NULL
P        4.75050318      -2.70142956       6.74625572       0.00000000 NULL
P        4.75050318      -0.17416572       1.76557710       0.00000000 NULL
P        2.59782470       0.01152936       1.28846957       0.00000000 NULL
P        2.59782470       3.19593628       6.84396151       0.00000000 NULL
P        2.59782470      -3.20746434       6.82399283       0.00000000 NULL
P        5.03185184      -0.32822570       6.31269450       0.00000000 NULL
P        5.03185184      -0.98529262       4.03761253       0.00000000 NULL
P        5.03185184       1.31351962       4.60611687       0.00000000 NULL
15
Lattice="6.181680876993707 0.0 0.0 0.0 8.620162940308132 1.3688705961303686e-16 0.0 -4.310081470154066 7.465280091068002" Properties=species:S:1:pos:R:3:initial_magmoms:R:1:castep_labels:S:1 n_minim_iter=6 pbc="T T T"
P        2.72278595       1.86007651       2.45418359       0.00000000 NULL
P        2.72278595       5.56473978       0.38378097       0.00000000 NULL
P        2.72278595       5.50542941       4.62731479       0.00000000 NULL
P        4.80491326       6.06302556       0.97451876       0.00000000 NULL
P        4.80491326       4.74469259       4.76347404       0.00000000 NULL
P        4.80491326       2.12252755       1.72728655       0.00000000 NULL
P        4.75020924       2.87099086       6.42877109       0.00000000 NULL
P        4.75020924      -2.69289261       6.73724482       0.00000000 NULL
P        4.75020924      -0.17809696       1.76454353       0.00000000 NULL
P        2.59002666       0.00672708       1.29500295       0.00000000 NULL
P        2.59002666       3.18521291       6.82360370       0.00000000 NULL
P        2.59002666      -3.19193870       6.81195280       0.00000000 NULL
P        5.02722310      -0.32916171       6.29595876       0.00000000 NULL
P        5.02722310      -0.97779747       4.03223756       0.00000000 NULL
P        5.02722310       1.30696048       4.60236312       0.00000000 NULL
15
Lattice="6.100475830194909 0.0 0.0 0.0 8.563861979723466 1.2838972758040539e-15 0.0 -4.281930989861734 7.416522028944214" Properties=species:S:1:pos:R:3:initial_magmoms:R:1:castep_labels:S:1 n_minim_iter=7 pbc="T T T"
P        2.69254404       1.87804785       2.44367623       0.00000000 NULL
P        2.69254404       5.50855280       0.40459829       0.00000000 NULL
P        2.69254404       5.45919361       4.56824677       0.00000000 NULL
P        4.75605364       6.01147944       0.96667126       0.00000000 NULL
P        4.75605364       4.72096083       4.72275754       0.00000000 NULL
P        4.75605364       2.11335399       1.72709250       0.00000000 NULL
P        4.70649201       2.85564841       6.35866905       0.00000000 NULL
P        4.70649201      -2.65266172       6.71025083       0.00000000 NULL
P        4.70649201      -0.20298541       1.76412344       0.00000000 NULL
P        2.52196644      -0.02256917       1.33745923       0.00000000 NULL
P        2.52196644       3.13494234       6.72824620       0.00000000 NULL
P        2.52196644      -3.11237188       6.76733790       0.00000000 NULL
P        4.95675128      -0.33661988       6.22267360       0.00000000 NULL
P        4.95675128      -0.93875206       4.01366313       0.00000000 NULL
P        4.95675128       1.27537322       4.59670660       0.00000000 NULL
15
Lattice="5.832325632973726 0.0 0.0 0.0 8.468980026890591 1.978940358752623e-16 0.0 -4.234490013445296 7.334351847430268" Properties=species:S:1:pos:R:3:initial_magmoms:R:1:castep_labels:S:1 n_minim_iter=8 pbc="T T T"
P        2.57150795       1.91851097       2.42591348       0.00000000 NULL
P        2.57150795       5.40882227       0.44852176       0.00000000 NULL
P        2.57150795       5.37613808       4.45991588       0.00000000 NULL
P        4.59185637       5.92383819       0.95794327       0.00000000 NULL
P        4.59185637       4.67745815       4.65122199       0.00000000 NULL
P        4.59185637       2.10217497       1.72518586       0.00000000 NULL
P        4.52934285       2.84248663       6.23335365       0.00000000 NULL
P        4.52934285      -2.58499549       6.67933993       0.00000000 NULL
P        4.52934285      -0.25748987       1.75600939       0.00000000 NULL
P        2.34617331      -0.07759131       1.40490921       0.00000000 NULL
P        2.34617331       3.05659902       6.56470047       0.00000000 NULL
P        2.34617331      -2.97900645       6.69909329       0.00000000 NULL
P        4.73191076      -0.35843958       6.12331117       0.00000000 NULL
P        4.73191076      -0.88923280       3.96227775       0.00000000 NULL
P        4.73191076       1.24767365       4.58311405       0.00000000 NULL
15
Lattice="6.332122743844222 0.0 0.0 0.0 8.301028391421156 4.4236874979833334e-16 0.0 -4.150514195710578 7.188901464506593" Properties=species:S:1:pos:R:3:initial_magmoms:R:1:castep_labels:S:1 n_minim_iter=9 pbc="T T T"
P        2.77312835       1.89351888       2.38185600       0.00000000 NULL
P        2.77312835       5.29152157       0.44890674       0.00000000 NULL
P        2.77312835       5.26650338       4.35813802       0.00000000 NULL
P        5.02094516       5.80354644       0.94351334       0.00000000 NULL
P        5.02094516       4.58214906       4.55426126       0.00000000 NULL
P        5.02094516       2.06584833       1.69112615       0.00000000 NULL
P        4.93108844       2.79518190       6.09247506       0.00000000 NULL
P        4.93108844      -2.52331450       6.56336175       0.00000000 NULL
P        4.93108844      -0.27186614       1.72196541       0.00000000 NULL
P        2.51776320      -0.08080267       1.39476678       0.00000000 NULL
P        2.51776320       2.98301248       6.42154019       0.00000000 NULL
P        2.51776320      -2.90220857       6.56149524       0.00000000 NULL
P        5.13641604      -0.35955285       6.01236834       0.00000000 NULL
P        5.13641604      -0.87657268       3.87133468       0.00000000 NULL
P        5.13641604       1.23612678       4.49409921       0.00000000 NULL
15
Lattice="5.825032207216389 0.0 0.0 0.0 8.297234375570195 1.2336714900473333e-16 0.0 -4.1486171877850975 7.1856157503973" Properties=species:S:1:pos:R:3:initial_magmoms:R:1:castep_labels:S:1 n_minim_iter=10 pbc="T T T"
P        2.55710785       1.89541616       2.37837066       0.00000000 NULL
P        2.55710785       5.28979730       0.45229250       0.00000000 NULL
P        2.55710785       5.26063935       4.35495188       0.00000000 NULL
P        4.61472254       5.79893729       0.94160769       0.00000000 NULL
P        4.61472254       4.58230996       4.55122245       0.00000000 NULL
P        4.61472254       2.06460555       1.69278490       0.00000000 NULL
P        4.53231818       2.79541639       6.08766365       0.00000000 NULL
P        4.53231818      -2.52116196       6.56268481       0.00000000 NULL
P        4.53231818      -0.27425318       1.72088232       0.00000000 NULL
P        2.31818697      -0.08236539       1.39634969       0.00000000 NULL
P        2.31818697       2.98052600       6.41610967       0.00000000 NULL
P        2.31818697      -2.89815936       6.55877143       0.00000000 NULL
P        4.72498250      -0.36062977       6.01257093       0.00000000 NULL
P        4.72498250      -0.87810668       3.86701503       0.00000000 NULL
P        4.72498250       1.23873769       4.49164483       0.00000000 NULL
15
Lattice="5.829848860852788 0.0 0.0 0.0 8.42204561101712 1.0619762546198115e-15 0.0 -4.211022805508561 7.29370545097206" Properties=species:S:1:pos:R:3:initial_magmoms:R:1:castep_labels:S:1 n_minim_iter=11 pbc="T T T"
P        2.55782263       1.92685308       2.41474686       0.00000000 NULL
P        2.55782263       5.36738738       0.46132956       0.00000000 NULL
P        2.55782263       5.33882923       4.41762831       0.00000000 NULL
P        4.62224921       5.88457733       0.95664678       0.00000000 NULL
P        4.62224921       4.65127696       4.61786935       0.00000000 NULL
P        4.62224921       2.09721539       1.71918860       0.00000000 NULL
P        4.53686514       2.83869049       6.17692600       0.00000000 NULL
P        4.53686514      -2.55769685       6.66361980       0.00000000 NULL
P        4.53686514      -0.28099237       1.74686438       0.00000000 NULL
P        2.31679920      -0.08520530       1.41992435       0.00000000 NULL
P        2.31679920       3.02393532       6.50995260       0.00000000 NULL
P        2.31679920      -2.93872876       6.65753323       0.00000000 NULL
P        4.72908380      -0.36646847       6.10543029       0.00000000 NULL
P        4.72908380      -0.89320027       3.92361858       0.00000000 NULL
P        4.72908380       1.25967000       4.55836131       0.00000000 NULL
15
Lattice="5.799279324062147 0.0 0.0 0.0 8.378451504908009 -5.4084726216962957e-17 0.0 -4.189225752454004 7.255951847626296" Properties=species:S:1:pos:R:3:initial_magmoms:R:1:castep_labels:S:1 n_minim_iter=12 pbc="T T T"
P        2.54398277       1.91789528       2.40210431       0.00000000 NULL
P        2.54398277       5.33922093       0.45989316       0.00000000 NULL
P        2.54398277       5.31056230       4.39395366       0.00000000 NULL
P        4.59970943       5.85375853       0.95163287       0.00000000 NULL
P        4.59970943       4.62743442       4.59368643       0.00000000 NULL
P        4.59970943       2.08648557       1.71063182       0.00000000 NULL
P        4.51339831       2.82485705       6.14364342       0.00000000 NULL
P        4.51339831      -2.54375362       6.63052738       0.00000000 NULL
P        4.51339831      -0.28110217       1.73773218       0.00000000 NULL
P        2.30310341      -0.08486050       1.41393742       0.00000000 NULL
P        2.30310341       3.00715070       6.47549107       0.00000000 NULL
P        2.30310341      -2.92228894       6.62247449       0.00000000 NULL
P        4.70424088      -0.36487046       6.07432293       0.00000000 NULL
P        4.70424088      -0.88885657       3.90280257       0.00000000 NULL
P        4.70424088       1.25372829       4.53477747       0.00000000 NULL
