4
Lattice="3.251892645823895 0.0 0.0 0.0 5.373960303722791 0.0 0.0 0.0 6.493634758379165" Properties=species:S:1:pos:R:3:initial_magmoms:R:1:castep_labels:S:1:forces:R:3 n_minim_iter=1 energy=-21.622451579949 stress="0.002536927342646042 -0.0 -0.0 -0.0 0.005025476029864224 -0.0 -0.0 -0.0 0.0001606453348724768" free_energy=-21.622451579949 pbc="T T T"
P        2.28245499       3.81202234       0.01097171       0.00000000 NULL       0.00000100       0.51162800      -0.00614800
P        2.28245499       1.56193797       0.01097171       0.00000000 NULL       0.00000100      -0.51162800      -0.00614800
P        0.65650867       4.24891812       5.02250759       0.00000000 NULL      -0.00000100      -0.51163000       0.00614800
P        0.65650867       1.12504219       5.02250759       0.00000000 NULL      -0.00000100       0.51163000       0.00614800
4
Lattice="3.2265282043256436 0.0 0.0 0.0 5.291244586881366 0.0 0.0 0.0 6.490415701573499" Properties=species:S:1:pos:R:3:initial_magmoms:R:1:castep_labels:S:1:forces:R:3 n_minim_iter=2 energy=-21.64245381905 stress="-0.006651134834511718 -0.0 0.0 -0.0 -0.008576560711312046 0.0 0.0 0.0 -0.005093917890326591" free_energy=-21.64245381905 pbc="T T T"
P        2.26465207       3.76704978       0.01079913       0.00000000 NULL      -0.00000100       0.38466100       0.19055700
P        2.26465207       1.52419481       0.01079913       0.00000000 NULL      -0.00000100      -0.38466100       0.19055700
P        0.65138797       4.16981710       5.02018494       0.00000000 NULL       0.00000100      -0.38465700      -0.19055700
P        0.65138797       1.12142748       5.02018494       0.00000000 NULL       0.00000100       0.38465700      -0.19055700
4
Lattice="3.2515880381534217 0.0 0.0 0.0 5.287156271684719 0.0 0.0 0.0 6.600689652599324" Properties=species:S:1:pos:R:3:initial_magmoms:R:1:castep_labels:S:1:forces:R:3 n_minim_iter=3 energy=-21.663664659978 stress="0.0037603290279962466 0.0 0.0 0.0 0.004269596245844207 0.0 0.0 0.0 0.0043348078293720645" free_energy=-21.663664659978 pbc="T T T"
P        2.28224119       3.80309352       0.01676150       0.00000000 NULL      -0.00000000      -0.10212100      -0.16204800
P        2.28224119       1.48406276       0.01676150       0.00000000 NULL      -0.00000000       0.10212100      -0.16204800
P        0.65644717       4.12764089       5.09970038       0.00000000 NULL       0.00000000       0.10211900       0.16204800
P        0.65644717       1.15951538       5.09970038       0.00000000 NULL       0.00000000      -0.10211900       0.16204800
4
Lattice="3.2521971773872647 0.0 0.0 0.0 5.297290021460048 0.0 0.0 0.0 6.578573276602408" Properties=species:S:1:pos:R:3:initial_magmoms:R:1:castep_labels:S:1:forces:R:3 n_minim_iter=4 energy=-21.664208464049 stress="0.002931233457109352 -0.0 0.0 -0.0 0.0053566193656919316 0.0 0.0 0.0 0.002863469473633238" free_energy=-21.664208464049 pbc="T T T"
P        2.28266874       3.81108700       0.01558146       0.00000000 NULL      -0.00000100      -0.12289800      -0.10743200
P        2.28266874       1.48620302       0.01558146       0.00000000 NULL      -0.00000100       0.12289800      -0.10743200
P        0.65657015       4.13484803       5.08373711       0.00000000 NULL       0.00000100       0.12289700       0.10743200
P        0.65657015       1.16244199       5.08373711       0.00000000 NULL       0.00000100      -0.12289700       0.10743200
4
Lattice="3.2607528417387717 0.0 0.0 0.0 5.2916717619351905 0.0 0.0 0.0 6.5676946889520185" Properties=species:S:1:pos:R:3:initial_magmoms:R:1:castep_labels:S:1:forces:R:3 n_minim_iter=5 energy=-21.664536120798 stress="0.00424533104164149 -0.0 -0.0 -0.0 0.0042956290814198245 -0.0 -0.0 -0.0 0.0024505734433054632" free_energy=-21.664536120798 pbc="T T T"
P        2.28867383       3.80683063       0.01501541       0.00000000 NULL       0.00000100      -0.11448000      -0.09214900
P        2.28867383       1.48484113       0.01501541       0.00000000 NULL       0.00000100       0.11448000      -0.09214900
P        0.65829741       4.13067701       5.07587074       0.00000000 NULL      -0.00000100       0.11448200       0.09214900
P        0.65829741       1.16099475       5.07587074       0.00000000 NULL      -0.00000100      -0.11448200       0.09214900
4
Lattice="3.245387742518831 0.0 0.0 0.0 5.282578266980863 0.0 0.0 0.0 6.549328547208264" Properties=species:S:1:pos:R:3:initial_magmoms:R:1:castep_labels:S:1:forces:R:3 n_minim_iter=6 energy=-21.668926940485 stress="-0.0001248644078347308 0.0 -0.0 0.0 -0.00040246951426900756 -0.0 -0.0 -0.0 -8.638978288137583e-06" free_energy=-21.668926940485 pbc="T T T"
P        2.27788930       3.79049097       0.01442690       0.00000000 NULL       0.00000100      -0.00600400       0.00032300
P        2.27788930       1.49208729       0.01442690       0.00000000 NULL       0.00000100       0.00600400       0.00032300
P        0.65519543       4.13337643       5.06222290       0.00000000 NULL      -0.00000100       0.00600200      -0.00032300
P        0.65519543       1.14920184       5.06222290       0.00000000 NULL      -0.00000100      -0.00600200      -0.00032300
