12
Lattice="5.83462 3.112165241638282e-16 -8.627785309122732e-16 -2.243174296026694 6.015755980302488 1.1090146419771853e-16 -2.246152471387811 -1.1945146250384273 7.565739721002017" Properties=species:S:1:pos:R:3:initial_magmoms:R:1:castep_labels:S:1 n_minim_iter=1 pbc="T T T"
P       -1.49089709      -0.52600793       7.27371427       0.00000000 NULL
P        3.73183147       1.76995578       3.62519228       0.00000000 NULL
P       -2.65131536       4.84597204       2.54495142       0.00000000 NULL
P        3.74925319       2.94965182       1.99146309       0.00000000 NULL
P       -0.15311639       3.19750708       5.60014163       0.00000000 NULL
P        1.80414975       4.46678982       0.02101233       0.00000000 NULL
P        1.43210321       0.33607274       3.02606892       0.00000000 NULL
P        0.06751776       4.12297447       3.82251055       0.00000000 NULL
P        1.48470389       0.81457220       6.79527505       0.00000000 NULL
P       -3.04231811       3.61498632       7.50307497       0.00000000 NULL
P        0.89837710       1.17611071       4.85764069       0.00000000 NULL
P        3.57904203      -0.52467684       4.60414150       0.00000000 NULL
12
Lattice="5.830878770300306 0.00020449654390621106 -0.0004856763172295602 -2.2415251000885137 6.016708594567686 -0.0018455541213055053 -2.245383852759912 -1.1973540177653512 7.570915105511295" Properties=species:S:1:pos:R:3:initial_magmoms:R:1:castep_labels:S:1 n_minim_iter=2 pbc="T T T"
P       -1.49056688      -0.52847909       7.27832303       0.00000000 NULL
P        3.72914032       1.76905176       3.62667819       0.00000000 NULL
P       -2.64971451       4.84604139       2.54512854       0.00000000 NULL
P        3.74684837       2.94960399       1.99116287       0.00000000 NULL
P       -0.15336860       3.19590973       5.60242983       0.00000000 NULL
P        1.80297506       4.46767190       0.01951126       0.00000000 NULL
P        1.43099628       0.33503131       3.02757820       0.00000000 NULL
P        0.06722065       4.12243671       3.82315459       0.00000000 NULL
P        1.48324326       0.81241327       6.79904607       0.00000000 NULL
P       -3.04074278       3.61280864       7.50666571       0.00000000 NULL
P        0.89729287       1.17487703       4.86021918       0.00000000 NULL
P        3.57659322      -0.52608367       4.60694947       0.00000000 NULL
12
Lattice="5.718769134728474 0.00672191243933954 -0.014918557814134066 -2.191703751568691 6.044238943348624 -0.057188970344482275 -2.222274419485444 -1.2824085224245976 7.7236357210153574" Properties=species:S:1:pos:R:3:initial_magmoms:R:1:castep_labels:S:1 n_minim_iter=3 pbc="T T T"
P       -1.48052542      -0.60249651       7.41407179       0.00000000 NULL
P        3.64870043       1.74192813       3.67025486       0.00000000 NULL
P       -2.60133779       4.84725318       2.54958047       0.00000000 NULL
P        3.67500232       2.94801699       1.98159611       0.00000000 NULL
P       -0.16060173       3.14758674       5.66929842       0.00000000 NULL
P        1.76816328       4.49353810      -0.02541685       0.00000000 NULL
P        1.39789009       0.30389866       3.07191824       0.00000000 NULL
P        0.05872294       4.10577615       3.84120359       0.00000000 NULL
P        1.43962939       0.74768929       6.90999874       0.00000000 NULL
P       -2.99321760       3.54681834       7.61196073       0.00000000 NULL
P        0.86508280       1.13778858       4.93606696       0.00000000 NULL
P        3.50312529      -0.56793300       4.68978775       0.00000000 NULL
12
Lattice="5.5717081746359005 0.02479357704560292 -0.02527669920649531 -2.1165320882799334 6.030931749833041 -0.09482017461421394 -2.1827915620726777 -1.3404381943653234 7.761457843282511" Properties=species:S:1:pos:R:3:initial_magmoms:R:1:castep_labels:S:1 n_minim_iter=4 pbc="T T T"
P       -1.45695418      -0.65281059       7.44148928       0.00000000 NULL
P        3.55176857       1.72424082       3.66799000       0.00000000 NULL
P       -2.52593680       4.82207632       2.53095934       0.00000000 NULL
P        3.58794587       2.94117496       1.95697649       0.00000000 NULL
P       -0.15666095       3.09818815       5.66410877       0.00000000 NULL
P        1.73135628       4.49597478      -0.05645678       0.00000000 NULL
P        1.35919369       0.28357346       3.07512794       0.00000000 NULL
P        0.06013342       4.07518703       3.81872326       0.00000000 NULL
P        1.39302367       0.70279984       6.92508404       0.00000000 NULL
P       -2.91513025       3.47694627       7.61835886       0.00000000 NULL
P        0.83375282       1.11088510       4.94714569       0.00000000 NULL
P        3.41054570      -0.58436036       4.70719379       0.00000000 NULL
12
Lattice="5.322666627261917 0.06969599707290224 -0.03577305753342032 -1.974489316082036 6.049374409642814 -0.14353047563491508 -2.1097215121687967 -1.4311500440430358 7.8392414891939035" Properties=species:S:1:pos:R:3:initial_magmoms:R:1:castep_labels:S:1 n_minim_iter=5 pbc="T T T"
P       -1.40894667      -0.72210948       7.50249761       0.00000000 NULL
P        3.39636596       1.72835893       3.68314577       0.00000000 NULL
P       -2.38411144       4.81916051       2.51788089       0.00000000 NULL
P        3.45017811       2.96526201       1.93427620       0.00000000 NULL
P       -0.13586415       3.05529309       5.67745918       0.00000000 NULL
P        1.68000377       4.53898554      -0.09340055       0.00000000 NULL
P        1.29861380       0.26471293       3.09000240       0.00000000 NULL
P        0.07615786       4.06422200       3.80262942       0.00000000 NULL
P        1.32406568       0.65594424       6.97331823       0.00000000 NULL
P       -2.76514951       3.39989812       7.65645428       0.00000000 NULL
P        0.78981332       1.09151113       4.98458262       0.00000000 NULL
P        3.25931349      -0.59217941       4.75287927       0.00000000 NULL
12
Lattice="4.878745553072153 0.198708323880407 -0.03660622047170987 -1.6708021831390112 6.161663032153398 -0.17538301500051443 -1.9663182035086944 -1.5534235230127627 7.936273356296748" Properties=species:S:1:pos:R:3:initial_magmoms:R:1:castep_labels:S:1 n_minim_iter=6 pbc="T T T"
P       -1.30293180      -0.78227459       7.57380901       0.00000000 NULL
P        3.14563801       1.83597979       3.72822870       0.00000000 NULL
P       -2.08424482       4.90045528       2.53227939       0.00000000 NULL
P        3.23491291       3.10142974       1.93206785       0.00000000 NULL
P       -0.05723407       3.08573056       5.71002913       0.00000000 NULL
P        1.62721243       4.70301306      -0.10731755       0.00000000 NULL
P        1.20463481       0.28129865       3.11092482       0.00000000 NULL
P        0.14832827       4.14391404       3.80409062       0.00000000 NULL
P        1.22762621       0.66285492       7.05437840       0.00000000 NULL
P       -2.44707923       3.36972797       7.73118832       0.00000000 NULL
P        0.73798185       1.13607928       5.05690941       0.00000000 NULL
P        3.00261146      -0.53116121       4.83023772       0.00000000 NULL
12
Lattice="4.888697579359808 0.2772563813191764 -0.10847537910267067 -1.5936417482321428 6.187352773502325 -0.09866820245475112 -2.0794230706619365 -1.533028829344899 7.850403961031028" Properties=species:S:1:pos:R:3:initial_magmoms:R:1:castep_labels:S:1 n_minim_iter=7 pbc="T T T"
P       -1.39510385      -0.72074036       7.47038034       0.00000000 NULL
P        3.12756921       1.93780299       3.65102764       0.00000000 NULL
P       -2.06158055       4.94011510       2.58263905       0.00000000 NULL
P        3.25979177       3.18307033       1.88177751       0.00000000 NULL
P       -0.08905604       3.14822208       5.64405448       0.00000000 NULL
P        1.69133437       4.76627617      -0.08630333       0.00000000 NULL
P        1.18452723       0.32826176       3.04206052       0.00000000 NULL
P        0.14732884       4.20363910       3.77573176       0.00000000 NULL
P        1.15475636       0.72712064       6.96128601       0.00000000 NULL
P       -2.50316419       3.41594294       7.69596332       0.00000000 NULL
P        0.69128507       1.21061710       5.00129767       0.00000000 NULL
P        2.96272669      -0.44124485       4.72637169       0.00000000 NULL
12
Lattice="4.849156614669673 0.29772764691848347 -0.1838509040995272 -1.557333057334289 6.165288097327118 -0.11319307542893328 -2.1661313385614256 -1.592803767821604 7.9136866617263655" Properties=species:S:1:pos:R:3:initial_magmoms:R:1:castep_labels:S:1 n_minim_iter=8 pbc="T T T"
P       -1.47808480      -0.76580646       7.50794180       0.00000000 NULL
P        3.06025594       1.92254534       3.60664284       0.00000000 NULL
P       -2.06141229       4.90308000       2.59706705       0.00000000 NULL
P        3.22080309       3.17294975       1.81788317       0.00000000 NULL
P       -0.15182555       3.09559910       5.63585879       0.00000000 NULL
P        1.69470825       4.76072031      -0.13837503       0.00000000 NULL
P        1.14149206       0.31145330       3.02598527       0.00000000 NULL
P        0.11034507       4.16696270       3.75405401       0.00000000 NULL
P        1.05909554       0.66949498       6.97003467       0.00000000 NULL
P       -2.57020126       3.34127204       7.73492060       0.00000000 NULL
P        0.62390533       1.18018494       4.99816512       0.00000000 NULL
P        2.88220046      -0.46190593       4.69976956       0.00000000 NULL
12
Lattice="4.847235446787576 0.3159161852295012 -0.22522594648537625 -1.5378412442377776 6.182602931447075 -0.10299812503955035 -2.2227663963151287 -1.611816236381164 7.931375688971097" Properties=species:S:1:pos:R:3:initial_magmoms:R:1:castep_labels:S:1 n_minim_iter=9 pbc="T T T"
P       -1.52928152      -0.77315590       7.51459471       0.00000000 NULL
P        3.03842927       1.93970166       3.58048596       0.00000000 NULL
P       -2.06473704       4.91317400       2.61495271       0.00000000 NULL
P        3.21548197       3.19261913       1.78861149       0.00000000 NULL
P       -0.18309178       3.10176647       5.63151705       0.00000000 NULL
P        1.70845583       4.78365409      -0.15406369       0.00000000 NULL
P        1.12309995       0.31533100       3.01280852       0.00000000 NULL
P        0.09467854       4.17856981       3.74836331       0.00000000 NULL
P        1.01246964       0.66476792       6.96448970       0.00000000 NULL
P       -2.61330627       3.33862489       7.75359532       0.00000000 NULL
P        0.59156398       1.18441970       4.99156823       0.00000000 NULL
P        2.84985908      -0.45660507       4.67566050       0.00000000 NULL
12
Lattice="4.82469859234697 0.36793711418509084 -0.3337890957267139 -1.4755408190070147 6.19464773224547 -0.07592776930797966 -2.3655141810206888 -1.656652636251668 7.944143717376051" Properties=species:S:1:pos:R:3:initial_magmoms:R:1:castep_labels:S:1 n_minim_iter=10 pbc="T T T"
P       -1.65977430      -0.79272864       7.50122694       0.00000000 NULL
P        2.97185257       1.97861494       3.49504947       0.00000000 NULL
P       -2.06132602       4.91080661       2.64990221       0.00000000 NULL
P        3.19196528       3.23248782       1.70385405       0.00000000 NULL
P       -0.26169634       3.10206264       5.59661244       0.00000000 NULL
P        1.74237106       4.82177731      -0.19589735       0.00000000 NULL
P        1.07016458       0.32538561       2.96586568       0.00000000 NULL
P        0.05704576       4.18764621       3.71813426       0.00000000 NULL
P        0.88611602       0.65060548       6.91857469       0.00000000 NULL
P       -2.71416936       3.31203578       7.76928052       0.00000000 NULL
P        0.50515788       1.18930999       4.95197377       0.00000000 NULL
P        2.75223844      -0.43741858       4.59084244       0.00000000 NULL
12
Lattice="4.813801156120305 0.4355785175255009 -0.4603780490345804 -1.401609864549414 6.250095193640539 -0.047882673802176395 -2.5393147737786244 -1.7248030283600393 8.019880511813312" Properties=species:S:1:pos:R:3:initial_magmoms:R:1:castep_labels:S:1 n_minim_iter=11 pbc="T T T"
P       -1.81721267      -0.82768513       7.54617381       0.00000000 NULL
P        2.90761767       2.04010175       3.42303548       0.00000000 NULL
P       -2.05802951       4.93811019       2.70683457       0.00000000 NULL
P        3.17708579       3.30432758       1.61914317       0.00000000 NULL
P       -0.34915084       3.12397334       5.60004526       0.00000000 NULL
P        1.79216229       4.90168710      -0.24759987       0.00000000 NULL
P        1.01173152       0.34065194       2.93480515       0.00000000 NULL
P        0.01897446       4.22488690       3.71198897       0.00000000 NULL
P        0.74342425       0.63800527       6.91844467       0.00000000 NULL
P       -2.83507889       3.30001948       7.84504071       0.00000000 NULL
P        0.40849164       1.20086615       4.94133042       0.00000000 NULL
P        2.64566736      -0.41705424       4.52850154       0.00000000 NULL
12
Lattice="4.753241729613277 0.5114293862024876 -0.6042846554425215 -1.3001215644069213 6.223965535793722 -0.008243566723725537 -2.7181334791368292 -1.7743343416799653 8.02216282883356" Properties=species:S:1:pos:R:3:initial_magmoms:R:1:castep_labels:S:1 n_minim_iter=12 pbc="T T T"
P       -1.98497749      -0.85587730       7.52143384       0.00000000 NULL
P        2.80491035       2.08910056       3.30220535       0.00000000 NULL
P       -2.03229044       4.89843907       2.74808808       0.00000000 NULL
P        3.12738574       3.34514463       1.50691045       0.00000000 NULL
P       -0.44631453       3.11031105       5.54910480       0.00000000 NULL
P        1.83344743       4.92626787      -0.30248500       0.00000000 NULL
P        0.93205199       0.35731293       2.86883214       0.00000000 NULL
P       -0.02412831       4.21094947       3.67215681       0.00000000 NULL
P        0.56860440       0.62292540       6.84141795       0.00000000 NULL
P       -2.94709413       3.24544639       7.85353001       0.00000000 NULL
P        0.29182517       1.20085509       4.87687101       0.00000000 NULL
P        2.49149104      -0.38216136       4.40516764       0.00000000 NULL
12
Lattice="4.767641372884251 0.5334158404103242 -0.6450472904515936 -1.2829886176633702 6.277803713854539 -0.005516619029981854 -2.781034991530973 -1.8114471138369972 8.097898840805007" Properties=species:S:1:pos:R:3:initial_magmoms:R:1:castep_labels:S:1 n_minim_iter=13 pbc="T T T"
P       -2.04070157      -0.87832481       7.58521046       0.00000000 NULL
P        2.79623682       2.11679802       3.30137562       0.00000000 NULL
P       -2.03942169       4.93379372       2.77800872       0.00000000 NULL
P        3.13385709       3.38339770       1.48988750       0.00000000 NULL
P       -0.47441661       3.13157294       5.58417508       0.00000000 NULL
P        1.85560867       4.97904312      -0.32382769       0.00000000 NULL
P        0.91754405       0.36197908       2.87768276       0.00000000 NULL
P       -0.03574720       4.24250417       3.69162807       0.00000000 NULL
P        0.52695012       0.61577216       6.88577567       0.00000000 NULL
P       -2.99560111       3.25509775       7.92406584       0.00000000 NULL
P        0.26369274       1.20647592       4.90304863       0.00000000 NULL
P        2.46807555      -0.38336490       4.41646989       0.00000000 NULL
12
Lattice="4.763515786121298 0.5561720160286824 -0.6892250749087006 -1.2579398553193493 6.292246680513031 0.0004305429090745641 -2.8413908512674335 -1.838693848702794 8.126496860859074" Properties=species:S:1:pos:R:3:initial_magmoms:R:1:castep_labels:S:1 n_minim_iter=14 pbc="T T T"
P       -2.09621100      -0.89641222       7.60402552       0.00000000 NULL
P        2.77412190       2.13512103       3.27534515       0.00000000 NULL
P       -2.03884067       4.93743190       2.79455587       0.00000000 NULL
P        3.12732974       3.40382281       1.45966455       0.00000000 NULL
P       -0.50463133       3.13413446       5.58497362       0.00000000 NULL
P        1.87270317       5.00301237      -0.34521051       0.00000000 NULL
P        0.89665207       0.36573532       2.86704033       0.00000000 NULL
P       -0.04908275       4.24866073       3.68896084       0.00000000 NULL
P        0.47672981       0.60611212       6.88533708       0.00000000 NULL
P       -3.03817680       3.24421734       7.94951186       0.00000000 NULL
P        0.23008437       1.20570638       4.89835913       0.00000000 NULL
P        2.42991013      -0.37971691       4.39572792       0.00000000 NULL
12
Lattice="4.750117307037525 0.6932438854361005 -0.9607557287405809 -1.11146141422027 6.372732674058322 0.02131701771194189 -3.216388636718266 -2.022929774137903 8.294180139776257" Properties=species:S:1:pos:R:3:initial_magmoms:R:1:castep_labels:S:1 n_minim_iter=15 pbc="T T T"
P       -2.44018462      -1.02584313       7.71079716       0.00000000 NULL
P        2.64574365       2.23588842       3.10429674       0.00000000 NULL
P       -2.04398413       4.94662704       2.87957371       0.00000000 NULL
P        3.09208446       3.51656198       1.26487773       0.00000000 NULL
P       -0.69089646       3.13203993       5.57330835       0.00000000 NULL
P        1.97944094       5.14256107      -0.48860624       0.00000000 NULL
P        0.77195531       0.38144351       2.79510877       0.00000000 NULL
P       -0.13303907       4.26874698       3.65784489       0.00000000 NULL
P        0.16910027       0.52507729       6.86993015       0.00000000 NULL
P       -3.30752144       3.15466678       8.08576523       0.00000000 NULL
P        0.02560551       1.18581129       4.85867575       0.00000000 NULL
P        2.20283456      -0.37085810       4.26255633       0.00000000 NULL
12
Lattice="4.834583389699329 0.6928835170984017 -1.0969833875263735 -1.144306746649042 6.4309089933875345 -0.061179208580832985 -3.425477873762709 -2.203935357049925 8.352748295742355" Properties=species:S:1:pos:R:3:initial_magmoms:R:1:castep_labels:S:1 n_minim_iter=16 pbc="T T T"
P       -2.63662325      -1.18778682       7.73007947       0.00000000 NULL
P        2.62071946       2.19518644       2.96732016       0.00000000 NULL
P       -2.15154997       4.94041263       2.82983073       0.00000000 NULL
P        3.09403567       3.48557607       1.11856185       0.00000000 NULL
P       -0.82117024       3.05405794       5.48091807       0.00000000 NULL
P        2.01009999       5.18234747      -0.62674828       0.00000000 NULL
P        0.72955915       0.33458564       2.72780555       0.00000000 NULL
P       -0.22046304       4.20392608       3.56303377       0.00000000 NULL
P        0.03100938       0.34566280       6.81082097       0.00000000 NULL
P       -3.53504633       3.03313649       8.05304689       0.00000000 NULL
P       -0.07693456       1.08826833       4.78691658       0.00000000 NULL
P        2.15581076      -0.48834723       4.18342195       0.00000000 NULL
12
Lattice="4.775376181157833 0.6996848962289782 -1.1189252319161516 -1.1145314527106405 6.385751910577549 -0.0698690701506891 -3.4325292691756473 -2.219644404146482 8.269639889600137" Properties=species:S:1:pos:R:3:initial_magmoms:R:1:castep_labels:S:1 n_minim_iter=17 pbc="T T T"
P       -2.65227575      -1.20700330       7.64606091       0.00000000 NULL
P        2.57387685       2.18508369       2.90147143       0.00000000 NULL
P       -2.12961120       4.89742476       2.79365007       0.00000000 NULL
P        3.04860113       3.45834626       1.07625361       0.00000000 NULL
P       -0.83506770       3.02119266       5.39906843       0.00000000 NULL
P        1.99630306       5.15106799      -0.64322567       0.00000000 NULL
P        0.70455926       0.33022699       2.68059667       0.00000000 NULL
P       -0.23041723       4.15646364       3.50633931       0.00000000 NULL
P       -0.00718445       0.31339782       6.71633660       0.00000000 NULL
P       -3.52771973       2.98908609       7.95688625       0.00000000 NULL
P       -0.10285027       1.06633710       4.71708291       0.00000000 NULL
P        2.10204992      -0.49630121       4.11595316       0.00000000 NULL
12
Lattice="4.801502120843844 0.6986854922156394 -1.1332588548000702 -1.1256062454191933 6.432236371805968 -0.08485000986855715 -3.4609687393179205 -2.2541849133592025 8.311042924166388" Properties=species:S:1:pos:R:3:initial_magmoms:R:1:castep_labels:S:1 n_minim_iter=18 pbc="T T T"
P       -2.67798209      -1.23352072       7.68067219       0.00000000 NULL
P        2.58191727       2.19024218       2.90159267       0.00000000 NULL
P       -2.15021881       4.92861819       2.79483333       0.00000000 NULL
P        3.05865988       3.46961909       1.06790661       0.00000000 NULL
P       -0.84938886       3.03012260       5.40972372       0.00000000 NULL
P        2.00363728       5.18390478      -0.66092758       0.00000000 NULL
P        0.70457544       0.32612085       2.68527744       0.00000000 NULL
P       -0.24010908       4.16954337       3.50926773       0.00000000 NULL
P       -0.01684109       0.28887107       6.74015713       0.00000000 NULL
P       -3.56145703       2.99414978       7.98289686       0.00000000 NULL
P       -0.11100755       1.05910815       4.72943953       0.00000000 NULL
P        2.10919253      -0.51794354       4.13039024       0.00000000 NULL
12
Lattice="4.801860871384499 0.6996411604379754 -1.1447834322315882 -1.1247588334485386 6.435394822030477 -0.09126712103748766 -3.476246396015899 -2.2688957612461294 8.307025605570187" Properties=species:S:1:pos:R:3:initial_magmoms:R:1:castep_labels:S:1 n_minim_iter=19 pbc="T T T"
P       -2.69384357      -1.24663304       7.67388790       0.00000000 NULL
P        2.57600530       2.18948370       2.88569764       0.00000000 NULL
P       -2.15560202       4.92796207       2.78775748       0.00000000 NULL
P        3.05393553       3.46531837       1.05490577       0.00000000 NULL
P       -0.85910561       3.02498074       5.39451810       0.00000000 NULL
P        2.00428511       5.18580898      -0.67080066       0.00000000 NULL
P        0.69932696       0.32408659       2.67558224       0.00000000 NULL
P       -0.24679277       4.16059086       3.49749965       0.00000000 NULL
P       -0.02932338       0.27191223       6.72632504       0.00000000 NULL
P       -3.57629884       2.98523374       7.97076254       0.00000000 NULL
P       -0.12032137       1.05121297       4.71742022       0.00000000 NULL
P        2.10154026      -0.52736318       4.11932476       0.00000000 NULL
12
Lattice="4.816336399517559 0.7059510345041958 -1.2279395530382482 -1.1238183214667263 6.466877249600037 -0.1380956158008914 -3.5909392202917485 -2.377159286872652 8.303196597874516" Properties=species:S:1:pos:R:3:initial_magmoms:R:1:castep_labels:S:1 n_minim_iter=20 pbc="T T T"
P       -2.81142786      -1.34184165       7.64887858       0.00000000 NULL
P        2.54013860       2.18611763       2.78291121       0.00000000 NULL
P       -2.20036820       4.93106793       2.74452800       0.00000000 NULL
P        3.02664454       3.43686898       0.96801192       0.00000000 NULL
P       -0.92949402       2.99279816       5.30242421       0.00000000 NULL
P        2.01175743       5.20504528      -0.74159346       0.00000000 NULL
P        0.66448203       0.31040760       2.61543047       0.00000000 NULL
P       -0.29502596       4.10015103       3.42442903       0.00000000 NULL
P       -0.11604240       0.14847721       6.64907597       0.00000000 NULL
P       -3.69014701       2.92649781       7.90772568       0.00000000 NULL
P       -0.18554944       0.99581420       4.64657314       0.00000000 NULL
P        2.05422164      -0.59745569       4.05501656       0.00000000 NULL
12
Lattice="4.851241063341191 0.7327092062194203 -1.2929579592517042 -1.1096488662464725 6.416822753793412 -0.1328990374908094 -3.694163862659019 -2.404466051915992 8.389095530518533" Properties=species:S:1:pos:R:3:initial_magmoms:R:1:castep_labels:S:1 n_minim_iter=21 pbc="T T T"
P       -2.91816369      -1.36351398       7.71741136       0.00000000 NULL
P        2.52907371       2.21537606       2.76704127       0.00000000 NULL
P       -2.22761419       4.90094238       2.77396951       0.00000000 NULL
P        3.02128979       3.39508834       0.95658604       0.00000000 NULL
P       -0.96847390       2.98697927       5.31526631       0.00000000 NULL
P        2.03736223       5.17019069      -0.74996674       0.00000000 NULL
P        0.64226719       0.33378579       2.60883636       0.00000000 NULL
P       -0.31213438       4.01182739       3.43771746       0.00000000 NULL
P       -0.16607752       0.07319473       6.67080656       0.00000000 NULL
P       -3.78034371       2.90105079       7.97573551       0.00000000 NULL
P       -0.22700692       0.97620789       4.65825603       0.00000000 NULL
P        2.03992400      -0.60756528       4.06933311       0.00000000 NULL
12
Lattice="4.736270170069446 0.7304910918321084 -1.3334273328966206 -1.0677342055337014 6.494491388125612 -0.21223867813106717 -3.701925982820022 -2.53821447855901 8.284847647026977" Properties=species:S:1:pos:R:3:initial_magmoms:R:1:castep_labels:S:1 n_minim_iter=22 pbc="T T T"
P       -2.93868529      -1.46145561       7.59017958       0.00000000 NULL
P        2.41898127       2.19563671       2.65909143       0.00000000 NULL
P       -2.19163967       4.94174395       2.65799231       0.00000000 NULL
P        2.92249812       3.38106922       0.85637023       0.00000000 NULL
P       -1.00023322       2.96256722       5.15886136       0.00000000 NULL
P        1.99509904       5.21598348      -0.81295942       0.00000000 NULL
P        0.58877838       0.30858902       2.54313247       0.00000000 NULL
P       -0.32900108       3.98057077       3.29349404       0.00000000 NULL
P       -0.23253623      -0.06237507       6.50694487       0.00000000 NULL
P       -3.78021959       2.84259832       7.80244261       0.00000000 NULL
P       -0.27971730       0.90863740       4.54481206       0.00000000 NULL
P        1.94303713      -0.70348461       3.97440990       0.00000000 NULL
12
Lattice="4.865282392448214 0.7198287022001172 -1.3453183624790122 -1.128327566422035 6.534905978648321 -0.17691329719594417 -3.7648279672881007 -2.502643117031398 8.42166000817296" Properties=species:S:1:pos:R:3:initial_magmoms:R:1:castep_labels:S:1 n_minim_iter=23 pbc="T T T"
P       -2.98596222      -1.42444873       7.72120778       0.00000000 NULL
P        2.48663091       2.22005271       2.73135879       0.00000000 NULL
P       -2.26649354       4.99359390       2.73625324       0.00000000 NULL
P        2.99395685       3.39787686       0.90105439       0.00000000 NULL
P       -1.02077632       3.01450427       5.27567988       0.00000000 NULL
P        2.02830394       5.23852558      -0.79147366       0.00000000 NULL
P        0.61412192       0.32521529       2.59578337       0.00000000 NULL
P       -0.34063314       4.01933306       3.37951720       0.00000000 NULL
P       -0.21348096      -0.03131650       6.63164860       0.00000000 NULL
P       -3.87388538       2.91241677       7.96585825       0.00000000 NULL
P       -0.27264736       0.93994421       4.63725840       0.00000000 NULL
P        2.02202799      -0.69026196       4.05032275       0.00000000 NULL
12
Lattice="4.830118976706201 0.7253511894906436 -1.3396088985028052 -1.1091147288598464 6.466523013900478 -0.15456078060867168 -3.7450182762153883 -2.460739921126722 8.364904968669268" Properties=species:S:1:pos:R:3:initial_magmoms:R:1:castep_labels:S:1 n_minim_iter=24 pbc="T T T"
P       -2.97020863      -1.39279879       7.67075556       0.00000000 NULL
P        2.46921164       2.21888039       2.71922078       0.00000000 NULL
P       -2.24209135       4.94784745       2.73600494       0.00000000 NULL
P        2.97484440       3.37740014       0.90375334       0.00000000 NULL
P       -1.01056334       3.00241114       5.25213060       0.00000000 NULL
P        2.02107965       5.19095126      -0.77053664       0.00000000 NULL
P        0.60749276       0.33395263       2.58167672       0.00000000 NULL
P       -0.33290444       3.98971480       3.36978780       0.00000000 NULL
P       -0.21460217      -0.00962219       6.58805832       0.00000000 NULL
P       -3.84432062       2.90225770       7.92821321       0.00000000 NULL
P       -0.27215054       0.94717293       4.61147133       0.00000000 NULL
P        2.00406514      -0.66206411       4.02095441       0.00000000 NULL
