12
Lattice="4.723521609137873 0.0 0.0 0.0 4.656898340530957 0.0 0.0 0.0 9.639701822890542" Properties=species:S:1:pos:R:3:initial_magmoms:R:1:castep_labels:S:1:forces:R:3 n_minim_iter=1 energy=-59.49453409029 stress="-0.0011184935320907874 -0.0 -0.0 -0.0 8.441638581787365e-05 0.0 -0.0 0.0 0.0030429984887699983" free_energy=-59.49453409029 pbc="T T T"
P        3.45939062       1.34394606       7.01198259       0.00000000 NULL       0.01783800      -0.33707700      -0.01579700
P        1.26413099       1.34394606       2.62771923       0.00000000 NULL      -0.01783800      -0.33707700       0.01579700
P        1.09762981       1.34394606       7.44757014       0.00000000 NULL       0.01783800      -0.33707700       0.01579700
P        3.62589180       1.34394606       2.19213168       0.00000000 NULL      -0.01783800      -0.33707700      -0.01579700
P        3.51809834       1.78436997       4.83923866       0.00000000 NULL      -0.22965100       0.51798100       0.05902800
P        1.20542327       1.78436997       4.80046317       0.00000000 NULL       0.22965100       0.51798100      -0.05902800
P        1.15633753       1.78436997       9.62031408       0.00000000 NULL      -0.22965100       0.51798200      -0.05902700
P        3.56718407       1.78436997       0.01938774       0.00000000 NULL       0.22965100       0.51798200       0.05902700
P        2.64395558       3.69478561       8.58771637       0.00000000 NULL       0.42989300      -0.18090500       0.30637900
P        2.07956603       3.69478561       1.05198545       0.00000000 NULL      -0.42989300      -0.18090500      -0.30637900
P        0.28219478       3.69478561       5.87183637       0.00000000 NULL       0.42989400      -0.18090400      -0.30637900
P        4.44132683       3.69478561       3.76786546       0.00000000 NULL      -0.42989400      -0.18090400       0.30637900
12
Lattice="4.744803385828547 0.0 0.0 0.0 4.655318614350913 0.0 0.0 0.0 9.52252431316628" Properties=species:S:1:pos:R:3:initial_magmoms:R:1:castep_labels:S:1:forces:R:3 n_minim_iter=2 energy=-59.527959676132 stress="0.0024840857724989073 0.0 0.0 0.0 -0.005305294075386135 -0.0 0.0 -0.0 -0.01826195266856039" free_energy=-59.527959676132 pbc="T T T"
P        3.47531649       1.33710330       6.92645112       0.00000000 NULL       0.01578800      -0.40210500       0.17717700
P        1.26948689       1.33710330       2.59607320       0.00000000 NULL      -0.01578800      -0.40210500      -0.17717700
P        1.10291480       1.33710330       7.35733535       0.00000000 NULL       0.01578800      -0.40210400      -0.17717700
P        3.64188858       1.33710330       2.16518896       0.00000000 NULL      -0.01578800      -0.40210400       0.17717700
P        3.52957663       1.79357927       4.78151945       0.00000000 NULL      -0.30525100       0.47096500      -0.07615700
P        1.21522676       1.79357927       4.74100486       0.00000000 NULL       0.30525100       0.47096500       0.07615700
P        1.15717494       1.79357927       9.50226702       0.00000000 NULL      -0.30525100       0.47096400       0.07615700
P        3.58762845       1.79357927       0.02025729       0.00000000 NULL       0.30525100       0.47096400      -0.07615700
P        2.66405290       3.69010451       8.48906308       0.00000000 NULL       0.51358800      -0.06885900      -0.04758100
P        2.08075049       3.69010451       1.03346123       0.00000000 NULL      -0.51358800      -0.06885900       0.04758100
P        0.29165121       3.69010451       5.79472339       0.00000000 NULL       0.51358600      -0.06886000       0.04757800
P        4.45315218       3.69010451       3.72780092       0.00000000 NULL      -0.51358600      -0.06886000      -0.04757800
12
Lattice="4.869659206157631 0.0 0.0 0.0 4.8088579888556 0.0 0.0 0.0 9.586345446698184" Properties=species:S:1:pos:R:3:initial_magmoms:R:1:castep_labels:S:1:forces:R:3 n_minim_iter=3 energy=-60.003373788598 stress="0.010918568418160912 0.0 4.454576705939363e-08 0.0 -0.01249887405035996 -0.0 4.454576705939363e-08 -0.0 -0.0002493226582314261" free_energy=-60.003373788598 pbc="T T T"
P        3.57059840       1.30530288       6.97560998       0.00000000 NULL       0.01830100      -0.23047000      -0.00306800
P        1.29906081       1.30530288       2.61073547       0.00000000 NULL      -0.01830100      -0.23047000       0.00306800
P        1.13576879       1.30530288       7.40390819       0.00000000 NULL       0.01830100      -0.23046900       0.00306800
P        3.73389041       1.30530288       2.18243726       0.00000000 NULL      -0.01830100      -0.23046900      -0.00306800
P        3.56974890       1.96452011       4.82173678       0.00000000 NULL      -0.39759300      -0.02605400       0.49639100
P        1.29991030       1.96452011       4.76460867       0.00000000 NULL       0.39759300      -0.02605400      -0.49639100
P        1.13491930       1.96452011       9.55778139       0.00000000 NULL      -0.39759300      -0.02605600      -0.49639100
P        3.73473990       1.96452011       0.02856405       0.00000000 NULL       0.39759300      -0.02605600       0.49639100
P        2.83090345       3.77592388       8.59928760       0.00000000 NULL       0.52077400       0.25652500      -0.38502000
P        2.03875576       3.77592388       0.98705784       0.00000000 NULL      -0.52077400       0.25652500       0.38502000
P        0.39607384       3.77592388       5.78023057       0.00000000 NULL       0.52077200       0.25652400       0.38501600
P        4.47358536       3.77592388       3.80611488       0.00000000 NULL      -0.52077200       0.25652400      -0.38501600
12
Lattice="4.785457273572536 0.0 0.0 0.0 5.0989878929362416 0.0 0.0 0.0 9.463198686930719" Properties=species:S:1:pos:R:3:initial_magmoms:R:1:castep_labels:S:1:forces:R:3 n_minim_iter=4 energy=-60.251786601365 stress="-0.022147455353784304 0.0 -0.0 0.0 -0.008755262707845407 0.0 -0.0 0.0 0.004484100760049448" free_energy=-60.251786601365 pbc="T T T"
P        3.51155849       1.32904698       6.88692638       0.00000000 NULL       0.01790600      -0.06165200      -0.09095100
P        1.27389879       1.32904698       2.57627230       0.00000000 NULL      -0.01790600      -0.06165200       0.09095100
P        1.11882985       1.32904698       7.30787165       0.00000000 NULL       0.01790600      -0.06165200       0.09095100
P        3.66662742       1.32904698       2.15532704       0.00000000 NULL      -0.01790600      -0.06165200      -0.09095100
P        3.46900772       2.15843868       4.77280233       0.00000000 NULL       0.12478200      -0.44661500       0.61464700
P        1.31644956       2.15843868       4.69039636       0.00000000 NULL      -0.12478200      -0.44661500      -0.61464700
P        1.07627908       2.15843868       9.42199570       0.00000000 NULL       0.12478500      -0.44661400      -0.61464700
P        3.70917819       2.15843868       0.04120298       0.00000000 NULL      -0.12478500      -0.44661400       0.61464700
P        2.85049583       3.98334799       8.51812241       0.00000000 NULL       0.69826800       0.50826600      -0.70696800
P        1.93496144       3.98334799       0.94507628       0.00000000 NULL      -0.69826800       0.50826600       0.70696800
P        0.45776720       3.98334799       5.67667562       0.00000000 NULL       0.69827000       0.50826700       0.70697400
P        4.32769008       3.98334799       3.78652306       0.00000000 NULL      -0.69827000       0.50826700      -0.70697400
12
Lattice="4.8634987850365325 0.0 0.0 0.0 5.307081536444584 0.0 0.0 0.0 9.399608630476598" Properties=species:S:1:pos:R:3:initial_magmoms:R:1:castep_labels:S:1:forces:R:3 n_minim_iter=5 energy=-60.376883484542 stress="-0.0076796317661518895 -0.0 -4.1217873561072415e-08 -0.0 0.0030352842090373726 0.0 -4.1217873561072415e-08 0.0 0.01808327036020793" free_energy=-60.376883484542 pbc="T T T"
P        3.57019946       1.35616078       6.84081424       0.00000000 NULL       0.01840700       0.06000500      -0.00198200
P        1.29329933       1.35616078       2.55879439       0.00000000 NULL      -0.01840700       0.06000500       0.00198200
P        1.13845007       1.35616078       7.25859871       0.00000000 NULL       0.01840800       0.06000500       0.00198100
P        3.72504872       1.35616078       2.14100992       0.00000000 NULL      -0.01840800       0.06000500      -0.00198100
P        3.50759246       2.27995804       4.74983094       0.00000000 NULL       0.19403300      -0.39926900       0.53082300
P        1.35590633       2.27995804       4.64977769       0.00000000 NULL      -0.19403300      -0.39926900      -0.53082300
P        1.07584306       2.27995804       9.34958201       0.00000000 NULL       0.19403100      -0.39926800      -0.53082300
P        3.78765572       2.27995804       0.05002662       0.00000000 NULL      -0.19403100      -0.39926800       0.53082300
P        2.93334474       4.13960533       8.47037184       0.00000000 NULL       0.69655900       0.33926300      -0.38336600
P        1.93015404       4.13960533       0.92923679       0.00000000 NULL      -0.69655900       0.33926300       0.38336600
P        0.50159535       4.13960533       5.62904111       0.00000000 NULL       0.69656100       0.33926400       0.38336900
P        4.36190344       4.13960533       3.77056753       0.00000000 NULL      -0.69656100       0.33926400      -0.38336900
12
Lattice="4.884216744132336 0.0 0.0 0.0 5.2925223775649 0.0 0.0 0.0 9.313513679897328" Properties=species:S:1:pos:R:3:initial_magmoms:R:1:castep_labels:S:1:forces:R:3 n_minim_iter=6 energy=-60.538067444914 stress="-0.011183051425617005 0.0 -0.0 0.0 -0.00062744878947897 -0.0 -0.0 -0.0 0.02905184259725046" free_energy=-60.538067444914 pbc="T T T"
P        3.58795494       1.31590900       6.79031383       0.00000000 NULL       0.02613400       0.08440900       0.03048400
P        1.29626180       1.31590900       2.52319985       0.00000000 NULL      -0.02613400       0.08440900      -0.03048400
P        1.14584657       1.31590900       7.17995669       0.00000000 NULL       0.02613500       0.08440900      -0.03048400
P        3.73837018       1.31590900       2.13355699       0.00000000 NULL      -0.02613500       0.08440900       0.03048400
P        3.50441300       2.30548027       4.72390916       0.00000000 NULL       0.40349500      -0.60425900       0.52174600
P        1.37980374       2.30548027       4.58960452       0.00000000 NULL      -0.40349500      -0.60425900      -0.52174600
P        1.06230463       2.30548027       9.24636136       0.00000000 NULL       0.40349200      -0.60425800      -0.52174500
P        3.82191212       2.30548027       0.06715232       0.00000000 NULL      -0.40349200      -0.60425800       0.52174500
P        3.02827854       4.13300341       8.38783360       0.00000000 NULL       0.18120400       0.51984900       0.35989700
P        1.85593821       4.13300341       0.92568008       0.00000000 NULL      -0.18120400       0.51984900      -0.35989700
P        0.58617017       4.13300341       5.58243692       0.00000000 NULL       0.18120400       0.51985000      -0.35989600
P        4.29804658       4.13300341       3.73107676       0.00000000 NULL      -0.18120400       0.51985000       0.35989600
12
Lattice="4.9124104126692565 0.0 0.0 0.0 5.517073944297749 0.0 0.0 0.0 9.067872214826693" Properties=species:S:1:pos:R:3:initial_magmoms:R:1:castep_labels:S:1:forces:R:3 n_minim_iter=7 energy=-60.957367424408 stress="-0.006236321917175919 -0.0 -0.0 -0.0 0.014468585860028702 -0.0 -0.0 -0.0 0.056027653541775926" free_energy=-60.957367424408 pbc="T T T"
P        3.61786813       1.26912426       6.69513399       0.00000000 NULL       0.03232000       0.26831300       0.21126900
P        1.29454229       1.26912426       2.37273822       0.00000000 NULL      -0.03232000       0.26831300      -0.21126900
P        1.16166292       1.26912426       6.90667433       0.00000000 NULL       0.03231900       0.26831300      -0.21127000
P        3.75074749       1.26912426       2.16119789       0.00000000 NULL      -0.03231900       0.26831300       0.21127000
P        3.52744446       2.42769782       4.61851701       0.00000000 NULL       0.31771200      -0.56316900      -0.01496500
P        1.38496595       2.42769782       4.44935520       0.00000000 NULL      -0.31771200      -0.56316900       0.01496500
P        1.07123926       2.42769782       8.98329131       0.00000000 NULL       0.31771700      -0.56317000       0.01496400
P        3.84117116       2.42769782       0.08458091       0.00000000 NULL      -0.31771700      -0.56317000      -0.01496400
P        3.22676652       4.38657486       8.23540278       0.00000000 NULL      -0.42652200       0.29485700       0.87577200
P        1.68564390       4.38657486       0.83246944       0.00000000 NULL       0.42652200       0.29485700      -0.87577200
P        0.77056131       4.38657486       5.36640555       0.00000000 NULL      -0.42652000       0.29485700      -0.87577100
P        4.14184910       4.38657486       3.70146667       0.00000000 NULL       0.42652000       0.29485700       0.87577100
12
Lattice="4.999250621170417 0.0 0.0 0.0 5.718256049756021 0.0 0.0 0.0 8.578191189328571" Properties=species:S:1:pos:R:3:initial_magmoms:R:1:castep_labels:S:1:forces:R:3 n_minim_iter=8 energy=-61.358690507628 stress="0.00040962428156137494 -0.0 0.0 -0.0 0.03421665637627415 0.0 0.0 0.0 0.0704725443551406" free_energy=-61.358690507628 pbc="T T T"
P        3.69296400       1.20676668       6.45184812       0.00000000 NULL       0.01712300       0.15727800       0.69338800
P        1.30628662       1.20676668       2.12634307       0.00000000 NULL      -0.01712300       0.15727800      -0.69338800
P        1.19333869       1.20676668       6.41543866       0.00000000 NULL       0.01712400       0.15727800      -0.69338800
P        3.80591194       1.20676668       2.16275253       0.00000000 NULL      -0.01712400       0.15727800       0.69338800
P        3.54047304       2.52971583       4.33260928       0.00000000 NULL       1.56174900      -0.21346400      -0.39613000
P        1.45877758       2.52971583       4.24558191       0.00000000 NULL      -1.56174900      -0.21346400       0.39613000
P        1.04084773       2.52971583       8.53467750       0.00000000 NULL       1.56174300      -0.21346400       0.39613000
P        3.95840289       2.52971583       0.04351369       0.00000000 NULL      -1.56174300      -0.21346400      -0.39613000
P        3.42409528       4.64167889       7.81633460       0.00000000 NULL      -1.11405200       0.05618700       1.12858900
P        1.57515534       4.64167889       0.76185659       0.00000000 NULL       1.11405200       0.05618700      -1.12858900
P        0.92446997       4.64167889       5.05095218       0.00000000 NULL      -1.11405300       0.05618700      -1.12858900
P        4.07478065       4.64167889       3.52723901       0.00000000 NULL       1.11405300       0.05618700       1.12858900
12
Lattice="5.035253707797921 0.0 0.0 0.0 5.858534424369829 0.0 0.0 0.0 8.238463922912866" Properties=species:S:1:pos:R:3:initial_magmoms:R:1:castep_labels:S:1:forces:R:3 n_minim_iter=9 energy=-61.632970152031 stress="0.014678340584879282 -0.0 0.0 -0.0 0.043248487364617616 0.0 0.0 0.0 0.07027078877949113" free_energy=-61.632970152031 pbc="T T T"
P        3.72670951       1.14634463       6.27845732       0.00000000 NULL      -0.00526400       0.23262400       0.63653800
P        1.30854420       1.14634463       1.96000660       0.00000000 NULL       0.00526400       0.23262400      -0.63653800
P        1.20908266       1.14634463       6.07923856       0.00000000 NULL      -0.00526400       0.23262400      -0.63653800
P        3.82617105       1.14634463       2.15922536       0.00000000 NULL       0.00526400       0.23262400       0.63653800
P        3.56513630       2.61640744       4.14104394       0.00000000 NULL       1.44063300      -0.26287400      -0.42929500
P        1.47011741       2.61640744       4.09741998       0.00000000 NULL      -1.44063300      -0.26287400       0.42929500
P        1.04750944       2.61640744       8.21665195       0.00000000 NULL       1.44062800      -0.26287400       0.42929600
P        3.98774426       2.61640744       0.02181198       0.00000000 NULL      -1.44062800      -0.26287400      -0.42929600
P        3.52715909       4.82093995       7.50981293       0.00000000 NULL      -1.35506000       0.03025000       1.16702700
P        1.50809462       4.82093995       0.72865099       0.00000000 NULL       1.35506000       0.03025000      -1.16702700
P        1.00953223       4.82093995       4.84788295       0.00000000 NULL      -1.35506100       0.03025000      -1.16702700
P        4.02572148       4.82093995       3.39058097       0.00000000 NULL       1.35506100       0.03025000       1.16702700
12
Lattice="5.041514684747135 0.0 0.0 0.0 5.777557462278688 0.0 0.0 0.0 8.180211077185266" Properties=species:S:1:pos:R:3:initial_magmoms:R:1:castep_labels:S:1:forces:R:3 n_minim_iter=10 energy=-61.76172794679 stress="0.013279878992332444 0.0 0.0 0.0 0.030013273573572228 -0.0 0.0 -0.0 0.06150793229597309" free_energy=-61.76172794679 pbc="T T T"
P        3.73291703       1.09174922       6.25523154       0.00000000 NULL      -0.02732300       0.31546200       0.58585800
P        1.30859765       1.09174922       1.92497954       0.00000000 NULL       0.02732300       0.31546200      -0.58585800
P        1.21215969       1.09174922       6.01508508       0.00000000 NULL      -0.02732200       0.31546200      -0.58585800
P        3.82935500       1.09174922       2.16512600       0.00000000 NULL       0.02732200       0.31546200       0.58585800
P        3.56058107       2.57493060       4.11548693       0.00000000 NULL       1.61613700      -0.25794100      -0.45517300
P        1.48093362       2.57493060       4.06472415       0.00000000 NULL      -1.61613700      -0.25794100       0.45517300
P        1.03982373       2.57493060       8.15482968       0.00000000 NULL       1.61613200      -0.25794100       0.45517300
P        4.00169096       2.57493060       0.02538139       0.00000000 NULL      -1.61613200      -0.25794100      -0.45517300
P        3.54318601       4.79836796       7.45796102       0.00000000 NULL      -1.37387400      -0.05752100       1.20848300
P        1.49832867       4.79836796       0.72225005       0.00000000 NULL       1.37387400      -0.05752100      -1.20848300
P        1.02242867       4.79836796       4.81235559       0.00000000 NULL      -1.37387500      -0.05752000      -1.20848300
P        4.01908602       4.79836796       3.36785549       0.00000000 NULL       1.37387500      -0.05752000       1.20848300
12
Lattice="4.970839785935276 0.0 0.0 0.0 5.8524249654858655 0.0 0.0 0.0 7.962905836508399" Properties=species:S:1:pos:R:3:initial_magmoms:R:1:castep_labels:S:1:forces:R:3 n_minim_iter=11 energy=-62.215823682279 stress="0.009225969177434908 -0.0 0.0 -0.0 0.020746192497509003 -0.0 0.0 -0.0 0.04269029931677159" free_energy=-62.215823682279 pbc="T T T"
P        3.66857661       1.12010393       6.13367372       0.00000000 NULL      -0.02611500      -0.03336200       0.17741900
P        1.30226318       1.12010393       1.82923212       0.00000000 NULL       0.02611500      -0.03336200      -0.17741900
P        1.18315672       1.12010393       5.81068504       0.00000000 NULL      -0.02611500      -0.03336200      -0.17741900
P        3.78768307       1.12010393       2.15222080       0.00000000 NULL       0.02611500      -0.03336200       0.17741900
P        3.55458840       2.53904791       3.97289459       0.00000000 NULL       0.82936100       0.22593800      -0.23278000
P        1.41625139       2.53904791       3.99001124       0.00000000 NULL      -0.82936100       0.22593800       0.23278000
P        1.06916850       2.53904791       7.97146416       0.00000000 NULL       0.82935900       0.22593800       0.23278000
P        3.90167128       2.53904791      -0.00855833       0.00000000 NULL      -0.82935900       0.22593800      -0.23278000
P        3.51828702       4.91558883       7.25338783       0.00000000 NULL      -1.22898400      -0.19257600       1.26014500
P        1.45255276       4.91558883       0.70951800       0.00000000 NULL       1.22898400      -0.19257600      -1.26014500
P        1.03286713       4.91558883       4.69097092       0.00000000 NULL      -1.22898400      -0.19257600      -1.26014500
P        3.93797266       4.91558883       3.27193491       0.00000000 NULL       1.22898400      -0.19257600       1.26014500
12
Lattice="4.9453847330292975 0.0 0.0 0.0 5.923869435481489 0.0 0.0 0.0 7.720713673430347" Properties=species:S:1:pos:R:3:initial_magmoms:R:1:castep_labels:S:1:forces:R:3 n_minim_iter=12 energy=-62.801433215974 stress="-0.0030760715905578137 -0.0 0.0 -0.0 0.009198902430283595 -0.0 0.0 -0.0 0.03378793359381954" free_energy=-62.801433215974 pbc="T T T"
P        3.60331086       1.06990164       5.97845331       0.00000000 NULL      -0.02562900       0.45521800      -0.02669200
P        1.34207387       1.06990164       1.74226037       0.00000000 NULL       0.02562900       0.45521800       0.02669200
P        1.13061849       1.06990164       5.60261720       0.00000000 NULL      -0.02562800       0.45521800       0.02669300
P        3.81476624       1.06990164       2.11809647       0.00000000 NULL       0.02562800       0.45521800      -0.02669300
P        3.55789169       2.59241008       3.87272147       0.00000000 NULL       0.39034000       0.11075800      -0.24720200
P        1.38749304       2.59241008       3.84799220       0.00000000 NULL      -0.39034000       0.11075800       0.24720200
P        1.08519932       2.59241008       7.70834904       0.00000000 NULL       0.39033700       0.11075800       0.24720300
P        3.86018541       2.59241008       0.01236463       0.00000000 NULL      -0.39033700       0.11075800      -0.24720300
P        3.38137476       5.01710705       7.01599624       0.00000000 NULL      -0.62981600      -0.56597600       1.11989100
P        1.56400997       5.01710705       0.70471743       0.00000000 NULL       0.62981600      -0.56597600      -1.11989100
P        0.90868240       5.01710705       4.56507427       0.00000000 NULL      -0.62981600      -0.56597600      -1.11989100
P        4.03670234       5.01710705       3.15563940       0.00000000 NULL       0.62981600      -0.56597600       1.11989100
12
Lattice="4.988261253507801 0.0 0.0 0.0 5.927748171778392 0.0 0.0 0.0 7.676047102100059" Properties=species:S:1:pos:R:3:initial_magmoms:R:1:castep_labels:S:1:forces:R:3 n_minim_iter=13 energy=-63.023723786551 stress="-0.00373293500342344 -0.0 -0.0 -0.0 0.018013720023778736 -0.0 -0.0 -0.0 0.028396925789603598" free_energy=-63.023723786551 pbc="T T T"
P        3.61626578       1.10884118       5.97633961       0.00000000 NULL      -0.00900100       0.15414000      -0.13356100
P        1.37199547       1.10884118       1.69970749       0.00000000 NULL       0.00900100       0.15414000       0.13356100
P        1.12213516       1.10884118       5.53773104       0.00000000 NULL      -0.00900100       0.15414000       0.13356000
P        3.86612610       1.10884118       2.13831606       0.00000000 NULL       0.00900100       0.15414000      -0.13356000
P        3.58364996       2.60121377       3.88366790       0.00000000 NULL       0.30786600       0.25162000      -0.19274600
P        1.40461129       2.60121377       3.79237920       0.00000000 NULL      -0.30786600       0.25162000       0.19274600
P        1.08951934       2.60121377       7.63040275       0.00000000 NULL       0.30786900       0.25162000       0.19274600
P        3.89874192       2.60121377       0.04564435       0.00000000 NULL      -0.30786900       0.25162000      -0.19274600
P        3.33560681       4.97504688       6.96847349       0.00000000 NULL      -0.05303200      -0.40576000       0.64683900
P        1.65265444       4.97504688       0.70757361       0.00000000 NULL       0.05303200      -0.40576000      -0.64683900
P        0.84147619       4.97504688       4.54559716       0.00000000 NULL      -0.05303100      -0.40576000      -0.64683800
P        4.14678507       4.97504688       3.13044994       0.00000000 NULL       0.05303100      -0.40576000       0.64683800
12
Lattice="5.069799182451631 0.0 0.0 0.0 5.857315784447679 0.0 0.0 0.0 7.449359571737223" Properties=species:S:1:pos:R:3:initial_magmoms:R:1:castep_labels:S:1:forces:R:3 n_minim_iter=14 energy=-63.318012359667 stress="0.014227086888398719 0.0 -4.5205537901622774e-08 0.0 0.006493007025423784 0.0 -4.5205537901622774e-08 0.0 0.013554790128725784" free_energy=-63.318012359667 pbc="T T T"
P        3.62265741       1.12563068       5.78756802       0.00000000 NULL       0.21112300       0.06026100      -0.19029900
P        1.44714177       1.12563068       1.66179156       0.00000000 NULL      -0.21112300       0.06026100       0.19029900
P        1.08775782       1.12563068       5.38647134       0.00000000 NULL       0.21112300       0.06026100       0.19030100
P        3.98204137       1.12563068       2.06288823       0.00000000 NULL      -0.21112300       0.06026100      -0.19030100
P        3.67886466       2.63241285       3.77419987       0.00000000 NULL      -0.47392700       0.11910200      -0.18271700
P        1.39093452       2.63241285       3.67515970       0.00000000 NULL       0.47392800       0.11910200       0.18271700
P        1.14396507       2.63241285       7.39983949       0.00000000 NULL      -0.47392700       0.11910200       0.18271900
P        3.92583411       2.63241285       0.04952009       0.00000000 NULL       0.47392700       0.11910200      -0.18271900
P        3.35549452       4.82386428       6.76229008       0.00000000 NULL       0.30152400      -0.17936300       0.24024400
P        1.71430467       4.82386428       0.68706949       0.00000000 NULL      -0.30152400      -0.17936300      -0.24024400
P        0.82059492       4.82386428       4.41174928       0.00000000 NULL       0.30152800      -0.17936300      -0.24024100
P        4.24920426       4.82386428       3.03761030       0.00000000 NULL      -0.30152800      -0.17936300       0.24024100
12
Lattice="5.047736216362016 0.0 0.0 0.0 5.8993626953515585 0.0 0.0 0.0 7.2809773980359775" Properties=species:S:1:pos:R:3:initial_magmoms:R:1:castep_labels:S:1:forces:R:3 n_minim_iter=15 energy=-63.51152483539 stress="0.015075683374045284 -0.0 0.0 -0.0 0.0021501637777511114 0.0 0.0 0.0 0.010934246275531682" free_energy=-63.51152483539 pbc="T T T"
P        3.72561936       1.14327713       5.62297426       0.00000000 NULL       0.03873300       0.04379400      -0.27457500
P        1.32211686       1.14327713       1.65800314       0.00000000 NULL      -0.03873300       0.04379400       0.27457500
P        1.20175125       1.14327713       5.29849184       0.00000000 NULL       0.03873200       0.04379500       0.27457300
P        3.84598497       1.14327713       1.98248556       0.00000000 NULL      -0.03873200       0.04379500      -0.27457300
P        3.67755903       2.68220018       3.65095592       0.00000000 NULL      -0.48480400      -0.02661400      -0.00623900
P        1.37017719       2.68220018       3.63002148       0.00000000 NULL       0.48480400      -0.02661400       0.00623900
P        1.15369092       2.68220018       7.27051018       0.00000000 NULL      -0.48480200      -0.02661300       0.00623700
P        3.89404529       2.68220018       0.01046722       0.00000000 NULL       0.48480300      -0.02661300      -0.00623700
P        3.35972277       4.81803627       6.60695313       0.00000000 NULL       0.14012100      -0.01718000       0.21332600
P        1.68801344       4.81803627       0.67402427       0.00000000 NULL      -0.14012100      -0.01718000      -0.21332600
P        0.83585466       4.81803627       4.31451297       0.00000000 NULL       0.14012100      -0.01718000      -0.21332700
P        4.21188155       4.81803627       2.96646443       0.00000000 NULL      -0.14012100      -0.01718000       0.21332700
12
Lattice="4.97494912700815 0.0 0.0 0.0 5.964733648456489 0.0 0.0 0.0 7.1351662776474125" Properties=species:S:1:pos:R:3:initial_magmoms:R:1:castep_labels:S:1:forces:R:3 n_minim_iter=16 energy=-63.598187238503 stress="0.0030186461194985754 0.0 0.0 0.0 0.0024634596950108925 0.0 0.0 0.0 0.005267115716315684" free_energy=-63.598187238503 pbc="T T T"
P        3.69750938       1.15296387       5.45398039       0.00000000 NULL       0.00662800       0.02485600      -0.18310300
P        1.27743974       1.15296387       1.68118589       0.00000000 NULL      -0.00662800       0.02485600       0.18310300
P        1.21003482       1.15296387       5.24876902       0.00000000 NULL       0.00662800       0.02485600       0.18310200
P        3.76491431       1.15296387       1.88639725       0.00000000 NULL      -0.00662800       0.02485600      -0.18310200
P        3.63218108       2.71987365       3.52526911       0.00000000 NULL      -0.32945000      -0.06491600       0.19056200
P        1.34276805       2.71987365       3.60989717       0.00000000 NULL       0.32945000      -0.06491600      -0.19056200
P        1.14470652       2.71987365       7.17748031       0.00000000 NULL      -0.32944900      -0.06491600      -0.19056100
P        3.83024261       2.71987365      -0.04231403       0.00000000 NULL       0.32944900      -0.06491600       0.19056100
P        3.33219544       4.86645718       6.47156463       0.00000000 NULL       0.09247200       0.04006000       0.20050100
P        1.64275369       4.86645718       0.66360164       0.00000000 NULL      -0.09247200       0.04006000      -0.20050100
P        0.84472088       4.86645718       4.23118478       0.00000000 NULL       0.09247200       0.04005900      -0.20050200
P        4.13022825       4.86645718       2.90398150       0.00000000 NULL      -0.09247200       0.04005900       0.20050200
12
Lattice="4.954207953141048 0.0 0.0 0.0 5.897113768853812 0.0 0.0 0.0 7.181830064545662" Properties=species:S:1:pos:R:3:initial_magmoms:R:1:castep_labels:S:1:forces:R:3 n_minim_iter=17 energy=-63.631426517799 stress="-0.004295090336526638 -0.0 0.0 -0.0 -0.00660301032705374 -0.0 0.0 -0.0 0.0036582140364045178" free_energy=-63.631426517799 pbc="T T T"
P        3.69375594       1.15002211       5.47029555       0.00000000 NULL      -0.00566900      -0.10947900      -0.10210300
P        1.26045201       1.15002211       1.71153452       0.00000000 NULL       0.00566900      -0.10947900       0.10210300
P        1.21665197       1.15002211       5.30244955       0.00000000 NULL      -0.00566900      -0.10947900       0.10210300
P        3.73755599       1.15002211       1.87938052       0.00000000 NULL       0.00566900      -0.10947900      -0.10210300
P        3.60451606       2.67508444       3.55105094       0.00000000 NULL      -0.17079600       0.05091900       0.13740600
P        1.34969190       2.67508444       3.63077912       0.00000000 NULL       0.17079600       0.05091900      -0.13740600
P        1.12741208       2.67508444       7.22169416       0.00000000 NULL      -0.17079700       0.05091900      -0.13740600
P        3.82679587       2.67508444      -0.03986409       0.00000000 NULL       0.17079700       0.05091900       0.13740600
P        3.33789940       4.81511462       6.53176302       0.00000000 NULL      -0.02346200       0.05856000       0.28305600
P        1.61630855       4.81511462       0.65006705       0.00000000 NULL       0.02346200       0.05856000      -0.28305600
P        0.86079543       4.81511462       4.24098208       0.00000000 NULL      -0.02346300       0.05856000      -0.28305700
P        4.09341253       4.81511462       2.94084799       0.00000000 NULL       0.02346300       0.05856000       0.28305700
12
Lattice="4.94958593073741 0.0 0.0 0.0 5.915037757489287 0.0 0.0 0.0 7.143043184472995" Properties=species:S:1:pos:R:3:initial_magmoms:R:1:castep_labels:S:1:forces:R:3 n_minim_iter=18 energy=-63.670795335089 stress="-0.007965502524763303 -0.0 0.0 -0.0 -0.002222622901029674 -0.0 0.0 -0.0 0.004933753268699892" free_energy=-63.670795335089 pbc="T T T"
P        3.68842759       1.13499004       5.44131850       0.00000000 NULL      -0.02003400      -0.01700400      -0.05865100
P        1.26115834       1.13499004       1.70172469       0.00000000 NULL       0.02003400      -0.01700400       0.05865100
P        1.21363463       1.13499004       5.27324628       0.00000000 NULL      -0.02003400      -0.01700300       0.05865100
P        3.73595130       1.13499004       1.86979691       0.00000000 NULL       0.02003400      -0.01700300      -0.05865100
P        3.57830792       2.68711932       3.53723629       0.00000000 NULL       0.15611400       0.00411800       0.08599700
P        1.37127801       2.68711932       3.60580690       0.00000000 NULL      -0.15611400       0.00411800      -0.08599700
P        1.10351495       2.68711932       7.17732849       0.00000000 NULL       0.15611400       0.00411800      -0.08599700
P        3.84607098       2.68711932      -0.03428531       0.00000000 NULL      -0.15611400       0.00411800       0.08599700
P        3.35946757       4.84437368       6.51887222       0.00000000 NULL      -0.12347000       0.01288600       0.36614300
P        1.59011836       4.84437368       0.62417097       0.00000000 NULL       0.12347000       0.01288600      -0.36614300
P        0.88467461       4.84437368       4.19569256       0.00000000 NULL      -0.12347200       0.01288500      -0.36614400
P        4.06491132       4.84437368       2.94735063       0.00000000 NULL       0.12347200       0.01288500       0.36614400
12
Lattice="4.970862024556089 0.0 0.0 0.0 5.90490776275679 0.0 0.0 0.0 7.06234439688932" Properties=species:S:1:pos:R:3:initial_magmoms:R:1:castep_labels:S:1:forces:R:3 n_minim_iter=19 energy=-63.726379982769 stress="-0.00633717759618378 0.0 0.0 0.0 -0.0060105935549700585 0.0 0.0 0.0 0.0015228850217246647" free_energy=-63.726379982769 pbc="T T T"
P        3.70700104       1.10993674       5.37286085       0.00000000 NULL      -0.04446300       0.12804200       0.03966100
P        1.26386098       1.10993674       1.68948355       0.00000000 NULL       0.04446300       0.12804200      -0.03966100
P        1.22157003       1.10993674       5.22065574       0.00000000 NULL      -0.04446300       0.12804300      -0.03966200
P        3.74929199       1.10993674       1.84168865       0.00000000 NULL       0.04446300       0.12804300       0.03966200
P        3.57950067       2.69488614       3.51510499       0.00000000 NULL       0.28845300      -0.21850500      -0.03767500
P        1.39136135       2.69488614       3.54723941       0.00000000 NULL      -0.28845300      -0.21850500       0.03767500
P        1.09406966       2.69488614       7.07841161       0.00000000 NULL       0.28845300      -0.21850500       0.03767600
P        3.87679236       2.69488614      -0.01606721       0.00000000 NULL      -0.28845300      -0.21850500      -0.03767600
P        3.40356520       4.84681923       6.49972636       0.00000000 NULL      -0.06061000       0.09046300       0.30347300
P        1.56729682       4.84681923       0.56261804       0.00000000 NULL       0.06061000       0.09046300      -0.30347300
P        0.91813419       4.84681923       4.09379024       0.00000000 NULL      -0.06061200       0.09046200      -0.30347400
P        4.05272783       4.84681923       2.96855416       0.00000000 NULL       0.06061200       0.09046200       0.30347400
12
Lattice="4.997642113558947 0.0 0.0 0.0 5.9366252221913225 0.0 0.0 0.0 6.904740430104731" Properties=species:S:1:pos:R:3:initial_magmoms:R:1:castep_labels:S:1:forces:R:3 n_minim_iter=20 energy=-63.87386647571 stress="0.009000154074099232 -0.0 0.0 -0.0 -0.006019449487942501 -0.0 0.0 -0.0 -0.005191166833952991" free_energy=-63.87386647571 pbc="T T T"
P        3.69157070       1.06328716       5.25048299       0.00000000 NULL       0.02345600       0.13035500      -0.01934100
P        1.30607142       1.06328716       1.65425744       0.00000000 NULL      -0.02345600       0.13035500       0.01934100
P        1.19274964       1.06328716       5.10662766       0.00000000 NULL       0.02345600       0.13035600       0.01933900
P        3.80489247       1.06328716       1.79811277       0.00000000 NULL      -0.02345600       0.13035600      -0.01933900
P        3.58751551       2.68553750       3.45970978       0.00000000 NULL       0.45175700      -0.20600800      -0.18058100
P        1.41012661       2.68553750       3.44503065       0.00000000 NULL      -0.45175700      -0.20600800       0.18058100
P        1.08869445       2.68553750       6.89740087       0.00000000 NULL       0.45175900      -0.20600700       0.18057900
P        3.90894766       2.68553750       0.00733956       0.00000000 NULL      -0.45175900      -0.20600700      -0.18057900
P        3.53269751       4.94928998       6.50327618       0.00000000 NULL      -0.50397700       0.07565200       0.58996500
P        1.46494461       4.94928998       0.40146425       0.00000000 NULL       0.50397700       0.07565200      -0.58996500
P        1.03387645       4.94928998       3.85383447       0.00000000 NULL      -0.50397700       0.07565200      -0.58996600
P        3.96376566       4.94928998       3.05090596       0.00000000 NULL       0.50397700       0.07565200       0.58996600
12
Lattice="4.987685235026563 0.0 0.0 0.0 5.998294116305984 0.0 0.0 0.0 6.614115362523876" Properties=species:S:1:pos:R:3:initial_magmoms:R:1:castep_labels:S:1:forces:R:3 n_minim_iter=21 energy=-64.622269428606 stress="-0.0025162416167145672 -0.0 0.0 -0.0 -0.03182428347010768 0.0 0.0 0.0 -0.015989967287658533" free_energy=-64.622269428606 pbc="T T T"
P        3.66886289       0.92276825       4.95505784       0.00000000 NULL       0.28915100      -0.00767000       0.24097400
P        1.31882235       0.92276825       1.65905753       0.00000000 NULL      -0.28915100      -0.00767000      -0.24097400
P        1.17502027       0.92276825       4.96611521       0.00000000 NULL       0.28915100      -0.00767000      -0.24097500
P        3.81266496       0.92276825       1.64800015       0.00000000 NULL      -0.28915100      -0.00767000       0.24097600
P        3.58846332       2.62094414       3.35846626       0.00000000 NULL       0.26503300       0.05993600      -0.14272500
P        1.39922192       2.62094414       3.25564910       0.00000000 NULL      -0.26503400       0.05993600       0.14272600
P        1.09462070       2.62094414       6.56270679       0.00000000 NULL       0.26503600       0.05993600       0.14272400
P        3.89306453       2.62094414       0.05140858       0.00000000 NULL      -0.26503600       0.05993600      -0.14272400
P        3.78531733       5.24476072       6.64466095       0.00000000 NULL       0.23222400      -0.05226600      -0.06372500
P        1.20236790       5.24476072      -0.03054559       0.00000000 NULL      -0.23222400      -0.05226600       0.06372500
P        1.29147472       5.24476072       3.27651209       0.00000000 NULL       0.23222400      -0.05226600       0.06372700
P        3.69621052       5.24476072       3.33760327       0.00000000 NULL      -0.23222400      -0.05226600      -0.06372700
