24
Lattice="7.08015 1.3126019110403296e-07 2.2734935896117938e-07 -2.3600501690510214 9.118577902635147 1.2497458316044438e-06 -2.3600501690509788 -4.55929016488942 7.896919409413417" Properties=species:S:1:pos:R:3:initial_magmoms:R:1:castep_labels:S:1 n_minim_iter=1 pbc="T T T"
P       -1.67871418       6.66505215       3.31638913       0.00000000 NULL
P        3.04138586       2.91397601       4.11391213       0.00000000 NULL
P        0.68133596       4.09883904       0.46662333       0.00000000 NULL
P        3.10163166       4.00114808       0.59231707       0.00000000 NULL
P        0.74158153       6.60504379       3.16893949       0.00000000 NULL
P       -1.61846844       3.07167533       4.13566804       0.00000000 NULL
P        3.97627128       7.08551465       1.93208297       0.00000000 NULL
P        1.61622124       3.90258925       5.17019638       0.00000000 NULL
P       -0.74382860       2.68976335       0.79464534       0.00000000 NULL
P        2.65562269       0.76831275       6.11606614       0.00000000 NULL
P       -2.06447726      -1.12153575       5.50426684       0.00000000 NULL
P        0.29557276       0.35322211       4.17350975       0.00000000 NULL
P       -2.42210202      -2.54413536       6.88226812       0.00000000 NULL
P       -0.06205192      -0.12886223       2.25250169       0.00000000 NULL
P        2.29799789       2.67299668       6.65907287       0.00000000 NULL
P        0.27240907       3.95577088       3.15424686       0.00000000 NULL
P        4.99250910       4.40903608       1.84867693       0.00000000 NULL
P        2.63245905       5.31306034       2.89400099       0.00000000 NULL
P       -0.22966594       6.21812490       4.92330655       0.00000000 NULL
P        4.49043421       1.74580841       2.92340312       0.00000000 NULL
P        2.13038423       5.71393396       0.05021507       0.00000000 NULL
P        4.87091376       0.10706887       1.33320956       0.00000000 NULL
P        0.15081351       3.35116161       7.32304119       0.00000000 NULL
P        2.51086364      -3.45823125       7.13759218       0.00000000 NULL
24
Lattice="7.0876197085197035 1.3139867346613557e-07 2.275892173149117e-07 -2.362540072203618 9.135444625097175 1.2521177214913802e-06 -2.362540072203575 -4.567723528313033 7.911526418278216" Properties=species:S:1:pos:R:3:initial_magmoms:R:1:castep_labels:S:1 n_minim_iter=2 pbc="T T T"
P       -1.68032377       6.67732825       3.32268360       0.00000000 NULL
P        3.04475608       2.91925352       4.12139632       0.00000000 NULL
P        0.68221627       4.10658551       0.46745169       0.00000000 NULL
P        3.10500604       4.00838267       0.59347544       0.00000000 NULL
P        0.74246601       6.61729004       3.17462566       0.00000000 NULL
P       -1.62007386       3.07749457       4.14343053       0.00000000 NULL
P        3.98022303       7.09836901       1.93548678       0.00000000 NULL
P        1.61768308       3.91008101       5.17962667       0.00000000 NULL
P       -0.74485666       2.69471732       0.79641825       0.00000000 NULL
P        2.65844462       0.76952996       6.12729733       0.00000000 NULL
P       -2.06663513      -1.12343749       5.51431238       0.00000000 NULL
P        0.29590479       0.35390664       4.18144703       0.00000000 NULL
P       -2.42463724      -2.54910932       6.89491778       0.00000000 NULL
P       -0.06209723      -0.12889682       2.25647630       0.00000000 NULL
P        2.30044247       2.67800522       6.67166263       0.00000000 NULL
P        0.27271165       3.96312680       3.16009702       0.00000000 NULL
P        4.99779149       4.41715847       1.85212227       0.00000000 NULL
P        2.63525153       5.32288213       2.89931252       0.00000000 NULL
P       -0.22999650       6.22957277       4.93252680       0.00000000 NULL
P        4.49508346       1.74896624       2.92870714       0.00000000 NULL
P        2.13254357       5.72462836       0.05029781       0.00000000 NULL
P        4.87606513       0.10722161       1.33571482       0.00000000 NULL
P        0.15098507       3.35734898       7.33652785       0.00000000 NULL
P        2.51352511      -3.46457136       7.15081428       0.00000000 NULL
24
Lattice="7.1845872811421545 1.3319637397661766e-07 2.307029241398146e-07 -2.3948626006039357 9.36160533967327 1.2839558429790384e-06 -2.394862600603895 -4.680803914971399 8.107387325482186" Properties=species:S:1:pos:R:3:initial_magmoms:R:1:castep_labels:S:1 n_minim_iter=3 pbc="T T T"
P       -1.70103653       6.84188609       3.40721525       0.00000000 NULL
P        3.08868837       2.98992879       4.22164182       0.00000000 NULL
P        0.69382604       4.21059348       0.47853558       0.00000000 NULL
P        3.14889983       4.10528943       0.60907251       0.00000000 NULL
P        0.75403727       6.78148995       3.25075089       0.00000000 NULL
P       -1.64082512       3.15562898       4.24756926       0.00000000 NULL
P        4.03126442       7.27051033       1.98101124       0.00000000 NULL
P        1.63640194       4.01074576       5.30594325       0.00000000 NULL
P       -0.75846032       2.76115232       0.82043825       0.00000000 NULL
P        2.69508425       0.78573090       6.27782197       0.00000000 NULL
P       -2.09464055      -1.14881575       5.64894145       0.00000000 NULL
P        0.30022189       0.36308394       4.28801524       0.00000000 NULL
P       -2.45754840      -2.61600707       7.06446393       0.00000000 NULL
P       -0.06268586      -0.12919885       2.30962904       0.00000000 NULL
P        2.33217637       2.74520498       6.84068565       0.00000000 NULL
P        0.27665135       4.06180236       3.23856515       0.00000000 NULL
P        5.06637624       4.52602604       1.89834380       0.00000000 NULL
P        2.67151376       5.45458007       2.97048390       0.00000000 NULL
P       -0.23436538       6.38302467       5.05618704       0.00000000 NULL
P        4.55535963       1.79130812       2.99977033       0.00000000 NULL
P        2.16049722       5.86807564       0.05143543       0.00000000 NULL
P        4.94298321       0.10921457       1.36932593       0.00000000 NULL
P        0.15325810       3.44032479       7.51730921       0.00000000 NULL
P        2.54812066      -3.54954015       7.32814373       0.00000000 NULL
24
Lattice="7.16186162049683 1.3277505898510649e-07 2.2997318463811068e-07 -2.387287381088213 9.399330060638336 1.2896829679212746e-06 -2.3872873810881723 -4.699666279992452 8.140057889568295" Properties=species:S:1:pos:R:3:initial_magmoms:R:1:castep_labels:S:1 n_minim_iter=4 pbc="T T T"
P       -1.69371634       6.86879166       3.42272185       0.00000000 NULL
P        3.08085812       3.00077163       4.23718943       0.00000000 NULL
P        0.69357101       4.22943216       0.48015195       0.00000000 NULL
P        3.13978530       4.12045756       0.61247368       0.00000000 NULL
P        0.75249796       6.80868512       3.26218629       0.00000000 NULL
P       -1.63478921       3.16985277       4.26540327       0.00000000 NULL
P        4.01583012       7.29680796       1.98743477       0.00000000 NULL
P        1.62854286       4.02975874       5.32550591       0.00000000 NULL
P       -0.75874417       2.77242880       0.82712264       0.00000000 NULL
P        2.68657594       0.78728415       6.30217850       0.00000000 NULL
P       -2.08799842      -1.15182339       5.67077891       0.00000000 NULL
P        0.29928881       0.36453833       4.30716239       0.00000000 NULL
P       -2.44984779      -2.62936196       7.09198783       0.00000000 NULL
P       -0.06256048      -0.12749544       2.31697198       0.00000000 NULL
P        2.32472653       2.75685646       6.87115995       0.00000000 NULL
P        0.27581350       4.07870470       3.25195565       0.00000000 NULL
P        5.05038795       4.54370308       1.90628641       0.00000000 NULL
P        2.66310069       5.47658777       2.98182136       0.00000000 NULL
P       -0.23434462       6.40806414       5.07697591       0.00000000 NULL
P        4.54022995       1.79850942       3.01106072       0.00000000 NULL
P        2.15294276       5.89242196       0.05202675       0.00000000 NULL
P        4.92798522       0.10887122       1.37504002       0.00000000 NULL
P        0.15341054       3.45441028       7.54682539       0.00000000 NULL
P        2.54069789      -3.56328230       7.35825460       0.00000000 NULL
24
Lattice="7.111442328033179 1.3184032663379583e-07 2.2835418021389202e-07 -2.370480950613201 9.418004297152645 1.2929372280408004e-06 -2.3704809506131608 -4.709003400133145 8.156230251698505" Properties=species:S:1:pos:R:3:initial_magmoms:R:1:castep_labels:S:1 n_minim_iter=5 pbc="T T T"
P       -1.67915215       6.88150655       3.43197920       0.00000000 NULL
P        3.06180945       3.00507132       4.24357218       0.00000000 NULL
P        0.69132877       4.24042893       0.48068423       0.00000000 NULL
P        3.11871456       4.12681745       0.61496075       0.00000000 NULL
P        0.74823365       6.82202555       3.26645059       0.00000000 NULL
P       -1.62224709       3.17816381       4.27482427       0.00000000 NULL
P        3.98400141       7.30728073       1.98934179       0.00000000 NULL
P        1.61352058       4.04154506       5.33362209       0.00000000 NULL
P       -0.75696002       2.77818106       0.83327181       0.00000000 NULL
P        2.66761640       0.78684485       6.31343253       0.00000000 NULL
P       -2.07334509      -1.15201290       5.68094381       0.00000000 NULL
P        0.29713570       0.36516713       4.31808818       0.00000000 NULL
P       -2.43276218      -2.63830916       7.10485086       0.00000000 NULL
P       -0.06228130      -0.12482443       2.31896433       0.00000000 NULL
P        2.30819928       2.76313265       6.88864930       0.00000000 NULL
P        0.27393020       4.08751394       3.25892117       0.00000000 NULL
P        5.01489178       4.55194038       1.91043268       0.00000000 NULL
P        2.64441095       5.48755258       2.98688195       0.00000000 NULL
P       -0.23359988       6.41985069       5.08747881       0.00000000 NULL
P        4.50736182       1.80219461       3.01601671       0.00000000 NULL
P        2.13688107       5.90496158       0.05274022       0.00000000 NULL
P        4.89422998       0.10795625       1.37799157       0.00000000 NULL
P        0.15326817       3.46164877       7.56072959       0.00000000 NULL
P        2.52374908      -3.56960582       7.37374358       0.00000000 NULL
24
Lattice="6.749322248334376 1.2512691696260836e-07 2.1672621050483142e-07 -2.24977425894511 9.502411646853595 1.3090831568143025e-06 -2.24977425894507 -4.751207082252993 8.229329156608667" Properties=species:S:1:pos:R:3:initial_magmoms:R:1:castep_labels:S:1 n_minim_iter=6 pbc="T T T"
P       -1.57529171       6.93608732       3.48158874       0.00000000 NULL
P        2.92425650       3.01922517       4.26603576       0.00000000 NULL
P        0.67448252       4.29830533       0.48171005       0.00000000 NULL
P        2.96655256       4.14965375       0.62905761       0.00000000 NULL
P        0.71677835       6.88280651       3.27917900       0.00000000 NULL
P       -1.53299570       3.22115756       4.32109795       0.00000000 NULL
P        3.75687841       7.34364551       1.99205378       0.00000000 NULL
P        1.50710428       4.10542136       5.36375894       0.00000000 NULL
P       -0.74266963       2.80455100       0.87352191       0.00000000 NULL
P        2.53112190       0.77961927       6.36066961       0.00000000 NULL
P       -1.96842621      -1.14710495       5.72416666       0.00000000 NULL
P        0.28134789       0.36748475       4.37382609       0.00000000 NULL
P       -2.31005667      -2.68899769       7.16006685       0.00000000 NULL
P       -0.06028248      -0.10509494       2.32055770       0.00000000 NULL
P        2.18949140       2.79409168       6.97803777       0.00000000 NULL
P        0.26085931       4.12908495       3.29201088       0.00000000 NULL
P        4.76040752       4.58690570       1.92988939       0.00000000 NULL
P        2.51063338       5.53762727       3.00743446       0.00000000 NULL
P       -0.22782662       6.47029415       5.13621822       0.00000000 NULL
P        4.27172170       1.81917067       3.03533234       0.00000000 NULL
P        2.02194764       5.96415308       0.05778412       0.00000000 NULL
P        4.65133850       0.10033359       1.39209469       0.00000000 NULL
P        0.15179007       3.49545011       7.62017554       0.00000000 NULL
P        2.40156429      -3.59578451       7.44639234       0.00000000 NULL
24
Lattice="6.95794706692504 1.2899465023842498e-07 2.234253228252642e-07 -2.319315868221812 9.66853616931375 1.3309990229334776e-06 -2.3193158682217705 -4.834269366330501 8.373197200059748" Properties=species:S:1:pos:R:3:initial_magmoms:R:1:castep_labels:S:1 n_minim_iter=7 pbc="T T T"
P       -1.61451533       7.05275014       3.55631290       0.00000000 NULL
P        3.02411610       3.06230529       4.32970668       0.00000000 NULL
P        0.70480051       4.38774918       0.48718310       0.00000000 NULL
P        3.06090642       4.20879857       0.63948958       0.00000000 NULL
P        0.74159060       7.01032430       3.32518397       0.00000000 NULL
P       -1.57772506       3.28368174       4.40852915       0.00000000 NULL
P        3.85953288       7.45689122       2.01640663       0.00000000 NULL
P        1.54021714       4.19383288       5.44965622       0.00000000 NULL
P       -0.77909837       2.85208056       0.90713992       0.00000000 NULL
P        2.60753821       0.78515127       6.46559740       0.00000000 NULL
P       -2.03109312      -1.15767882       5.82036170       0.00000000 NULL
P        0.28822259       0.37252660       4.46043942       0.00000000 NULL
P       -2.37851393      -2.75036725       7.28277774       0.00000000 NULL
P       -0.05919814      -0.09761864       2.34992274       0.00000000 NULL
P        2.26011735       2.84798492       7.11369801       0.00000000 NULL
P        0.27174174       4.20281121       3.35156240       0.00000000 NULL
P        4.91037316       4.66459400       1.96396248       0.00000000 NULL
P        2.59105742       5.63539951       3.05767799       0.00000000 NULL
P       -0.23741269       6.57810364       5.23095368       0.00000000 NULL
P        4.40121884       1.84934716       3.08133042       0.00000000 NULL
P        2.08190317       6.07535389       0.06091873       0.00000000 NULL
P        4.79505930       0.09595223       1.41798816       0.00000000 NULL
P        0.15642766       3.55827865       7.74730252       0.00000000 NULL
P        2.47574348      -3.65423171       7.58110805       0.00000000 NULL
24
Lattice="6.807866445011665 1.2621227857634403e-07 2.1860611209266697e-07 -2.2692889901610407 9.447941520319477 1.300538518538781e-06 -2.2692889901610016 -4.723972012671422 8.182156646928451" Properties=species:S:1:pos:R:3:initial_magmoms:R:1:castep_labels:S:1 n_minim_iter=8 pbc="T T T"
P       -1.57884118       6.89151488       3.47596610       0.00000000 NULL
P        2.95973650       2.99191061       4.23024620       0.00000000 NULL
P        0.69044778       4.28848715       0.47594971       0.00000000 NULL
P        2.99453187       4.11249175       0.62515246       0.00000000 NULL
P        0.72524292       6.85029933       3.24894832       0.00000000 NULL
P       -1.54404586       3.20912155       4.30806124       0.00000000 NULL
P        3.77536160       7.28526921       1.97050275       0.00000000 NULL
P        1.50607273       4.09880313       5.32397908       0.00000000 NULL
P       -0.76321591       2.78784034       0.88768027       0.00000000 NULL
P        2.55085167       0.76748855       6.31749852       0.00000000 NULL
P       -1.98772590      -1.13088740       5.68807417       0.00000000 NULL
P        0.28156293       0.36339792       4.35874463       0.00000000 NULL
P       -2.32748378      -2.68852797       7.11662721       0.00000000 NULL
P       -0.05819485      -0.09494503       2.29551180       0.00000000 NULL
P        2.21109376       2.78347205       6.95217829       0.00000000 NULL
P        0.26597493       4.10697865       3.27567272       0.00000000 NULL
P        4.80455260       4.55763798       1.91891383       0.00000000 NULL
P        2.53526373       5.50729610       2.98757564       0.00000000 NULL
P       -0.23203383       6.42750495       5.11066761       0.00000000 NULL
P        4.30654395       1.80822261       3.01105110       0.00000000 NULL
P        2.03725515       5.93618514       0.06044343       0.00000000 NULL
P        4.69242000       0.09268616       1.38550686       0.00000000 NULL
P        0.15384211       3.47774398       7.56967406       0.00000000 NULL
P        2.42313106      -3.57043095       7.40913660       0.00000000 NULL
24
Lattice="6.815208174837006 1.2634838824659458e-07 2.1884186099148617e-07 -2.271736233379436 9.44488212622089 1.3000152034201828e-06 -2.2717362333793973 -4.722442315305034 8.17950713410196" Properties=species:S:1:pos:R:3:initial_magmoms:R:1:castep_labels:S:1 n_minim_iter=9 pbc="T T T"
P       -1.57976697       6.88903921       3.47595656       0.00000000 NULL
P        2.96370519       2.99009731       4.22810698       0.00000000 NULL
P        0.69196923       4.28818702       0.47544896       0.00000000 NULL
P        2.99796951       4.10970028       0.62490857       0.00000000 NULL
P        0.72623332       6.84884689       3.24665278       0.00000000 NULL
P       -1.54550271       3.20877637       4.30795115       0.00000000 NULL
P        3.77814539       7.28101522       1.96908816       0.00000000 NULL
P        1.50640928       4.09909579       5.32100232       0.00000000 NULL
P       -0.76532661       2.78721257       0.88942211       0.00000000 NULL
P        2.55332998       0.76631907       6.31450485       0.00000000 NULL
P       -1.99014208      -1.12923976       5.68590869       0.00000000 NULL
P        0.28159400       0.36291977       4.35860475       0.00000000 NULL
P       -2.32969675      -2.68944329       7.11419719       0.00000000 NULL
P       -0.05796059      -0.09391260       2.29328460       0.00000000 NULL
P        2.21377527       2.78335495       6.95153648       0.00000000 NULL
P        0.26656368       4.10584402       3.27488848       0.00000000 NULL
P        4.81003584       4.55582508       1.91832334       0.00000000 NULL
P        2.53829973       5.50565455       2.98630086       0.00000000 NULL
P       -0.23238325       6.42472050       5.10949821       0.00000000 NULL
P        4.31108902       1.80756817       3.00922440       0.00000000 NULL
P        2.03935298       5.93503494       0.06079002       0.00000000 NULL
P        4.69755571       0.09170476       1.38537979       0.00000000 NULL
P        0.15408333       3.47681503       7.56623816       0.00000000 NULL
P        2.42581952      -3.56852060       7.40740055       0.00000000 NULL
24
Lattice="6.820942022352433 1.2645468910836978e-07 2.190259794727308e-07 -2.2736475156345293 9.431394557058775 1.2979932015172581e-06 -2.2736475156344906 -4.715698529079172 8.167826557521899" Properties=species:S:1:pos:R:3:initial_magmoms:R:1:castep_labels:S:1 n_minim_iter=10 pbc="T T T"
P       -1.57988776       6.87885765       3.47271325       0.00000000 NULL
P        2.96740697       2.98450931       4.22091114       0.00000000 NULL
P        0.69375973       4.28372523       0.47420753       0.00000000 NULL
P        3.00079400       4.10154342       0.62395830       0.00000000 NULL
P        0.72714653       6.84026071       3.24006386       0.00000000 NULL
P       -1.54650078       3.20528806       4.30380975       0.00000000 NULL
P        3.77930543       7.26758177       1.96510474       0.00000000 NULL
P        1.50565804       4.09577469       5.31136031       0.00000000 NULL
P       -0.76798914       2.78373577       0.89136695       0.00000000 NULL
P        2.55502757       0.76378921       6.30393736       0.00000000 NULL
P       -1.99226706      -1.12556690       5.67732094       0.00000000 NULL
P        0.28138030       0.36177677       4.35439884       0.00000000 NULL
P       -2.33119874      -2.68845487       7.10386026       0.00000000 NULL
P       -0.05755129      -0.09219856       2.28762848       0.00000000 NULL
P        2.21609585       2.78065249       6.94416837       0.00000000 NULL
P        0.26725907       4.10029490       3.27066526       0.00000000 NULL
P        4.81455378       4.54876948       1.91562926       0.00000000 NULL
P        2.54090639       5.49802791       2.98153757       0.00000000 NULL
P       -0.23269835       6.41441050       5.10291994       0.00000000 NULL
P        4.31459649       1.80493255       3.00358481       0.00000000 NULL
P        2.04094917       5.92774921       0.06132730       0.00000000 NULL
P        4.70165703       0.09000541       1.38393428       0.00000000 NULL
P        0.15436209       3.47217277       7.55380866       0.00000000 NULL
P        2.42800956      -3.56217899       7.39791440       0.00000000 NULL
24
Lattice="6.888459801655538 1.2770641364598018e-07 2.2119403010703436e-07 -2.296153440227686 9.332080006594568 1.2828335808522088e-06 -2.2961534402276484 -4.666041241970176 8.081817640711591" Properties=species:S:1:pos:R:3:initial_magmoms:R:1:castep_labels:S:1 n_minim_iter=11 pbc="T T T"
P       -1.58538284       6.80419171       3.45030524       0.00000000 NULL
P        3.00692375       2.94193362       4.16745252       0.00000000 NULL
P        0.71077057       4.25199503       0.46406518       0.00000000 NULL
P        3.03304386       4.03857583       0.61688603       0.00000000 NULL
P        0.73689046       6.77855471       3.18906844       0.00000000 NULL
P       -1.55926278       3.18098982       4.27586848       0.00000000 NULL
P        3.79935186       7.16463545       1.93474528       0.00000000 NULL
P        1.50319855       4.07422535       5.23738589       0.00000000 NULL
P       -0.79295456       2.75925960       0.90969185       0.00000000 NULL
P        2.57622009       0.74322570       6.22356307       0.00000000 NULL
P       -2.01608639      -1.09533625       5.61369062       0.00000000 NULL
P        0.28006689       0.35210964       4.32638557       0.00000000 NULL
P       -2.35014701      -2.68514292       7.02776867       0.00000000 NULL
P       -0.05399364      -0.07761457       2.24253357       0.00000000 NULL
P        2.24215943       2.76275655       6.89333699       0.00000000 NULL
P        0.27396087       4.05989491       3.24012679       0.00000000 NULL
P        4.86626743       4.49610200       1.89591106       0.00000000 NULL
P        2.57011412       5.44212356       2.94578528       0.00000000 NULL
P       -0.23568592       6.33682307       5.05549565       0.00000000 NULL
P        4.35662077       1.78548234       2.96010425       0.00000000 NULL
P        2.06046752       5.87581502       0.06622318       0.00000000 NULL
P        4.74946973       0.07497884       1.37443534       0.00000000 NULL
P        0.15716294       3.43825510       7.45953580       0.00000000 NULL
P        2.45331634      -3.51323474       7.32966833       0.00000000 NULL
