12
Lattice="4.417362931932523 0.0 0.0 0.0 9.093151775600145 0.0 0.0 0.0 9.093151775600145" Properties=species:S:1:pos:R:3:initial_magmoms:R:1:castep_labels:S:1:forces:R:3 n_minim_iter=1 energy=-60.021445792009 stress="0.0004143446531462376 -0.0 0.0 -0.0 -0.0009831582195375572 -0.0 0.0 -0.0 -0.0009831582195375572" free_energy=-60.021445792009 pbc="T T T"
P        3.82493892       2.57329410       0.20160983       0.00000000 NULL       0.32345600      -0.58429900       0.20151700
P        1.61625745       6.51985768       8.89154194       0.00000000 NULL       0.32345500       0.58429900      -0.20151700
P        2.72059818       0.20160983       6.51985768       0.00000000 NULL       0.32345600       0.20151700       0.58429900
P        0.51191672       8.89154194       2.57329410       0.00000000 NULL       0.32345500      -0.20151700      -0.58429900
P        4.08159747       8.81865242       4.73673275       0.00000000 NULL      -0.03198300      -0.33296900       0.12010300
P        1.87291601       0.27449936       4.35641903       0.00000000 NULL      -0.03198300       0.33296900      -0.12010300
P        2.97725674       4.73673275       0.27449936       0.00000000 NULL      -0.03198300       0.12010300       0.33296900
P        0.76857527       4.35641903       8.81865242       0.00000000 NULL      -0.03198300      -0.12010300      -0.33296900
P        3.39804754       7.79063711       0.54335168       0.00000000 NULL      -0.29147200       0.58253800       0.06579800
P        1.18936607       1.30251467       8.54980009       0.00000000 NULL      -0.29147300      -0.58253700      -0.06579800
P        2.29370680       0.54335168       1.30251467       0.00000000 NULL      -0.29147300       0.06579800      -0.58253800
P        0.08502534       8.54980009       7.79063711       0.00000000 NULL      -0.29147300      -0.06579800       0.58253800
12
Lattice="4.3413582170184375 0.0 0.0 0.0 9.475439180114254 0.0 0.0 0.0 9.475439180114254" Properties=species:S:1:pos:R:3:initial_magmoms:R:1:castep_labels:S:1:forces:R:3 n_minim_iter=2 energy=-60.356080556987 stress="0.00790442415928117 0.0 0.0 0.0 0.007655773780667097 0.0 0.0 0.0 0.007655773780667097" free_energy=-60.356080556987 pbc="T T T"
P        3.79558298       2.61165420       0.23416727       0.00000000 NULL       0.59881500      -0.01265000       0.02920700
P        1.62490387       6.86378498       9.24127191       0.00000000 NULL       0.59881500       0.01265000      -0.02920700
P        2.71024343       0.23416727       6.86378498       0.00000000 NULL       0.59881500       0.02920700       0.01265000
P        0.53956432       9.24127191       2.61165420       0.00000000 NULL       0.59881500      -0.02920700      -0.01265000
P        4.00776521       9.14960936       4.95022332       0.00000000 NULL      -0.32296000      -0.36180300       0.42520700
P        1.83708610       0.32582982       4.52521586       0.00000000 NULL      -0.32296000       0.36180300      -0.42520700
P        2.92242565       4.95022332       0.32582982       0.00000000 NULL      -0.32296000       0.42520700       0.36180300
P        0.75174654       4.52521586       9.14960936       0.00000000 NULL      -0.32296000      -0.42520700      -0.36180300
P        3.30673014       8.18777908       0.57405780       0.00000000 NULL      -0.27585600       0.43960000      -0.02022900
P        1.13605103       1.28766010       8.90138138       0.00000000 NULL      -0.27585500      -0.43960000       0.02022900
P        2.22139059       0.57405780       1.28766010       0.00000000 NULL      -0.27585600      -0.02022900      -0.43960000
P        0.05071148       8.90138138       8.18777908       0.00000000 NULL      -0.27585500       0.02022900       0.43960000
12
Lattice="4.2303362831635205 0.0 0.0 0.0 9.500241195874077 0.0 0.0 0.0 9.500241195874077" Properties=species:S:1:pos:R:3:initial_magmoms:R:1:castep_labels:S:1:forces:R:3 n_minim_iter=3 energy=-60.525579409192 stress="-0.0019765735428072177 0.0 0.0 0.0 0.00043136955556779627 0.0 0.0 0.0 0.00043136955556779627" free_energy=-60.525579409192 pbc="T T T"
P        3.71871131       2.58496602       0.24649689       0.00000000 NULL       0.49685900       0.17452100       0.06704000
P        1.60354317       6.91527517       9.25374431       0.00000000 NULL       0.49686100      -0.17452100      -0.06703900
P        2.66112724       0.24649689       6.91527517       0.00000000 NULL       0.49686000       0.06704000      -0.17452100
P        0.54595910       9.25374431       2.58496602       0.00000000 NULL       0.49686100      -0.06703900       0.17452000
P        3.90185843       9.15224738       4.97270181       0.00000000 NULL      -0.35844500      -0.52511500       0.58875600
P        1.78669029       0.34799382       4.52753939       0.00000000 NULL      -0.35844500       0.52511500      -0.58875600
P        2.84427436       4.97270181       0.34799382       0.00000000 NULL      -0.35844600       0.58875600       0.52511500
P        0.72910622       4.52753939       9.15224738       0.00000000 NULL      -0.35844500      -0.58875600      -0.52511500
P        3.20538957       8.24529139       0.57920079       0.00000000 NULL      -0.13841600       0.00815700       0.20815600
P        1.09022143       1.25494981       8.92104041       0.00000000 NULL      -0.13841400      -0.00815800      -0.20815600
P        2.14780550       0.57920079       1.25494981       0.00000000 NULL      -0.13841600       0.20815600      -0.00815700
P        0.03263736       8.92104041       8.24529139       0.00000000 NULL      -0.13841400      -0.20815600       0.00815700
12
Lattice="4.291112741973472 0.0 0.0 0.0 9.501336218335906 0.0 0.0 0.0 9.501336218335906" Properties=species:S:1:pos:R:3:initial_magmoms:R:1:castep_labels:S:1:forces:R:3 n_minim_iter=4 energy=-60.81206238914 stress="0.006633454280067648 -0.0 -0.0 -0.0 -0.001524851904998272 -0.0 -0.0 -0.0 -0.001524851904998272" free_energy=-60.81206238914 pbc="T T T"
P        3.82635530       2.54982131       0.26700116       0.00000000 NULL       0.49408900       0.36171000       0.02088200
P        1.68079893       6.95151491       9.23433505       0.00000000 NULL       0.49408700      -0.36171100      -0.02088300
P        2.75357712       0.26700116       6.95151491       0.00000000 NULL       0.49408900       0.02088200      -0.36171000
P        0.60802075       9.23433505       2.54982131       0.00000000 NULL       0.49408700      -0.02088300       0.36171100
P        3.93430238       9.09109984       5.02300638       0.00000000 NULL      -0.46523100      -0.21232200       0.39098500
P        1.78874600       0.41023638       4.47832984       0.00000000 NULL      -0.46523100       0.21232200      -0.39098500
P        2.86152419       5.02300638       0.41023638       0.00000000 NULL      -0.46523100       0.39098500       0.21232200
P        0.71596782       4.47832984       9.09109984       0.00000000 NULL      -0.46523100      -0.39098500      -0.21232200
P        3.22083616       8.29590801       0.59760942       0.00000000 NULL      -0.02885500      -0.41550100       0.41849900
P        1.07527979       1.20542821       8.90372680       0.00000000 NULL      -0.02885800       0.41550200      -0.41850000
P        2.14805798       0.59760942       1.20542821       0.00000000 NULL      -0.02885600       0.41850000       0.41550200
P        0.00250161       8.90372680       8.29590801       0.00000000 NULL      -0.02885800      -0.41850000      -0.41550100
12
Lattice="4.055441389134351 0.0 0.0 0.0 9.911552109257363 0.0 0.0 0.0 9.911552109257363" Properties=species:S:1:pos:R:3:initial_magmoms:R:1:castep_labels:S:1:forces:R:3 n_minim_iter=5 energy=-61.250789087558 stress="0.011474292293338927 -0.0 0.0 -0.0 0.004204899488008677 -0.0 0.0 -0.0 0.004204899488008677" free_energy=-61.250789087558 pbc="T T T"
P        3.69639771       2.61986246       0.30871493       0.00000000 NULL       0.34608200       0.56812800      -0.06887100
P        1.66867701       7.29168965       9.60283718       0.00000000 NULL       0.34608400      -0.56812700       0.06887200
P        2.68253736       0.30871493       7.29168965       0.00000000 NULL       0.34608400      -0.06887200      -0.56812700
P        0.65481667       9.60283718       2.61986246       0.00000000 NULL       0.34608400       0.06887200       0.56812700
P        3.67714818       9.39172227       5.31916749       0.00000000 NULL      -0.54609100      -0.02321200       0.29240100
P        1.64942749       0.51982984       4.59238462       0.00000000 NULL      -0.54609100       0.02321200      -0.29240100
P        2.66328783       5.31916749       0.51982984       0.00000000 NULL      -0.54609100       0.29240100       0.02321200
P        0.63556714       4.59238462       9.39172227       0.00000000 NULL      -0.54609100      -0.29240100      -0.02321200
P        3.00483549       8.70775452       0.66499692       0.00000000 NULL       0.20000600      -0.34772100       0.14042900
P        0.97711479       1.20379759       9.24655518       0.00000000 NULL       0.20001000       0.34772100      -0.14043000
P        1.99097514       0.66499692       1.20379759       0.00000000 NULL       0.20000700       0.14042900       0.34772100
P       -0.03674555       9.24655518       8.70775452       0.00000000 NULL       0.20000500      -0.14043000      -0.34772200
12
Lattice="3.9004312463183397 0.0 0.0 0.0 10.1240144968413 0.0 0.0 0.0 10.1240144968413" Properties=species:S:1:pos:R:3:initial_magmoms:R:1:castep_labels:S:1:forces:R:3 n_minim_iter=6 energy=-61.377386001155 stress="0.014416553305673924 -0.0 0.0 -0.0 0.008156217042898527 -0.0 0.0 -0.0 0.008156242056828309" free_energy=-61.377386001155 pbc="T T T"
P        3.56797302       2.67476083       0.34319651       0.00000000 NULL       0.55553200       0.38849200      -0.25838700
P        1.61775740       7.44925367       9.78081799       0.00000000 NULL       0.55553300      -0.38849100       0.25838800
P        2.59286521       0.34319651       7.44925367       0.00000000 NULL       0.55553300      -0.25838800      -0.38849200
P        0.64264959       9.78081799       2.67476083       0.00000000 NULL       0.55553300       0.25838800       0.38849100
P        3.49496468       9.53853432       5.48016163       0.00000000 NULL      -0.54240800       0.36604300       0.01918300
P        1.54474906       0.58548018       4.64385286       0.00000000 NULL      -0.54240800      -0.36604300      -0.01918300
P        2.51985687       5.48016163       0.58548018       0.00000000 NULL      -0.54240800       0.01918300      -0.36604200
P        0.56964124       4.64385286       9.53853432       0.00000000 NULL      -0.54240700      -0.01918300       0.36604200
P        2.91875320       8.92778101       0.67629600       0.00000000 NULL      -0.01312600      -0.86019600       0.03438300
P        0.96853758       1.19623349       9.44771850       0.00000000 NULL      -0.01312400       0.86019600      -0.03438300
P        1.94364539       0.67629600       1.19623349       0.00000000 NULL      -0.01312500       0.03438300       0.86019600
P       -0.00657023       9.44771850       8.92778101       0.00000000 NULL      -0.01312600      -0.03438400      -0.86019600
12
Lattice="3.8062650431795793 0.0 0.0 0.0 10.165128492535903 0.0 0.0 0.0 10.165128492535903" Properties=species:S:1:pos:R:3:initial_magmoms:R:1:castep_labels:S:1:forces:R:3 n_minim_iter=7 energy=-61.526784159702 stress="0.01135934907784773 0.0 0.0 0.0 0.008059812657766036 0.0 0.0 0.0 0.008059812657766036" free_energy=-61.526784159702 pbc="T T T"
P        3.51753486       2.64565964       0.36662886       0.00000000 NULL       0.29842800       0.88918500      -0.08494500
P        1.61440233       7.51946885       9.79849964       0.00000000 NULL       0.29842900      -0.88918500       0.08494500
P        2.56596860       0.36662886       7.51946885       0.00000000 NULL       0.29842800      -0.08494500      -0.88918500
P        0.66283607       9.79849964       2.64565964       0.00000000 NULL       0.29842900       0.08494500       0.88918500
P        3.35437288       9.53967362       5.53799015       0.00000000 NULL      -0.53119700       0.79285400      -0.26371000
P        1.45124035       0.62545488       4.62713835       0.00000000 NULL      -0.53119700      -0.79285500       0.26371000
P        2.40280662       5.53799015       0.62545488       0.00000000 NULL      -0.53119700      -0.26371000      -0.79285500
P        0.49967409       4.62713835       9.53967362       0.00000000 NULL      -0.53119700       0.26371000       0.79285400
P        2.86879992       8.93234361       0.67322474       0.00000000 NULL       0.23276800      -0.26073900      -0.03654200
P        0.96566740       1.23278488       9.49190376       0.00000000 NULL       0.23276800       0.26073800       0.03654200
P        1.91723366       0.67322474       1.23278488       0.00000000 NULL       0.23276800      -0.03654200       0.26073900
P        0.01410114       9.49190376       8.93234361       0.00000000 NULL       0.23276800       0.03654200      -0.26073900
12
Lattice="3.7591987141000436 0.0 0.0 0.0 10.22116927366126 0.0 0.0 0.0 10.22116927366126" Properties=species:S:1:pos:R:3:initial_magmoms:R:1:castep_labels:S:1:forces:R:3 n_minim_iter=8 energy=-62.209560154286 stress="0.008013222250892994 -0.0 -0.0 -0.0 0.008898431165757057 -0.0 -0.0 -0.0 0.008898431165757057" free_energy=-62.209560154286 pbc="T T T"
P        3.64456758       2.67947112       0.49734006       0.00000000 NULL       0.04252800       0.47376800       0.06495900
P        1.76496822       7.54169815       9.72382921       0.00000000 NULL       0.04252700      -0.47376800      -0.06496000
P        2.70476790       0.49734006       7.54169815       0.00000000 NULL       0.04252700       0.06495900      -0.47376800
P        0.82516855       9.72382921       2.67947112       0.00000000 NULL       0.04252600      -0.06496000       0.47376900
P        3.08013028       9.65561336       5.59135378       0.00000000 NULL      -0.26718000       0.11482800      -0.20551800
P        1.20053092       0.56555592       4.62981549       0.00000000 NULL      -0.26718100      -0.11482800       0.20551700
P        2.14033060       5.59135378       0.56555592       0.00000000 NULL      -0.26718000      -0.20551800      -0.11482800
P        0.26073125       4.62981549       9.65561336       0.00000000 NULL      -0.26718100       0.20551700       0.11482800
P        2.89556063       8.96560455       0.69463972       0.00000000 NULL       0.22465500      -0.12265400      -0.36210200
P        1.01596127       1.25556472       9.52652955       0.00000000 NULL       0.22465300       0.12265500       0.36210200
P        1.95576095       0.69463972       1.25556472       0.00000000 NULL       0.22465400      -0.36210100       0.12265400
P        0.07616159       9.52652955       8.96560455       0.00000000 NULL       0.22465200       0.36210200      -0.12265400
12
Lattice="3.732779048735607 0.0 0.0 0.0 10.18007054408935 0.0 0.0 0.0 10.18007054408935" Properties=species:S:1:pos:R:3:initial_magmoms:R:1:castep_labels:S:1:forces:R:3 n_minim_iter=9 energy=-62.414963089924 stress="0.010782431551338841 0.0 0.0 0.0 0.016095527626813717 0.0 0.0 0.0 0.016095527626813717" free_energy=-62.414963089924 pbc="T T T"
P        3.67910416       2.69139861       0.60108668       0.00000000 NULL      -0.04659400       0.43456100      -0.25306500
P        1.81271464       7.48867194       9.57898386       0.00000000 NULL      -0.04659400      -0.43456100       0.25306500
P        2.74590940       0.60108668       7.48867194       0.00000000 NULL      -0.04659400      -0.25306500      -0.43456100
P        0.87951987       9.57898386       2.69139861       0.00000000 NULL      -0.04659400       0.25306500       0.43456100
P        2.96552970       9.58904694       5.52952937       0.00000000 NULL      -0.18996600       0.49095000       0.37341100
P        1.09914018       0.59102360       4.65054117       0.00000000 NULL      -0.18996600      -0.49095000      -0.37341100
P        2.03233494       5.52952937       0.59102360       0.00000000 NULL      -0.18996600       0.37341100      -0.49095000
P        0.16594541       4.65054117       9.58904694       0.00000000 NULL      -0.18996600      -0.37341100       0.49095000
P        2.90801334       8.89567336       0.65958813       0.00000000 NULL       0.23656000      -0.06146000      -0.39634400
P        1.04162381       1.28439718       9.52048242       0.00000000 NULL       0.23656000       0.06146000       0.39634400
P        1.97481857       0.65958813       1.28439718       0.00000000 NULL       0.23656000      -0.39634400       0.06146000
P        0.10842905       9.52048242       8.89567336       0.00000000 NULL       0.23656000       0.39634400      -0.06146000
12
Lattice="3.7051912445809316 0.0 0.0 0.0 9.880343445352711 0.0 0.0 0.0 9.880343445352711" Properties=species:S:1:pos:R:3:initial_magmoms:R:1:castep_labels:S:1:forces:R:3 n_minim_iter=10 energy=-62.858072274107 stress="0.0065573859435692225 -0.0 0.0 -0.0 0.012641541082378957 0.0 0.0 0.0 0.012641541082378957" free_energy=-62.858072274107 pbc="T T T"
P        3.70828875       2.62599166       0.78759631       0.00000000 NULL      -0.04235900       0.23121600      -0.33410800
P        1.85569312       7.25435178       9.09274714       0.00000000 NULL      -0.04235900      -0.23121600       0.33410800
P        2.78199094       0.78759631       7.25435178       0.00000000 NULL      -0.04236000      -0.33410700      -0.23121600
P        0.92939531       9.09274714       2.62599166       0.00000000 NULL      -0.04235900       0.33410800       0.23121600
P        2.79570389       9.33557321       5.41639799       0.00000000 NULL      -0.10948700       0.22821200       0.25350100
P        0.94310827       0.54477024       4.46394546       0.00000000 NULL      -0.10948600      -0.22821200      -0.25350100
P        1.86940608       5.41639799       0.54477024       0.00000000 NULL      -0.10948700       0.25350100      -0.22821200
P        0.01681046       4.46394546       9.33557321       0.00000000 NULL      -0.10948600      -0.25350100       0.22821200
P        2.97805409       8.55093228       0.59207825       0.00000000 NULL       0.15184500       0.23156600      -0.59269200
P        1.12545847       1.32941116       9.28826519       0.00000000 NULL       0.15184600      -0.23156600       0.59269200
P        2.05175628       0.59207825       1.32941116       0.00000000 NULL       0.15184600      -0.59269200      -0.23156600
P        0.19916066       9.28826519       8.55093228       0.00000000 NULL       0.15184700       0.59269200       0.23156700
12
Lattice="3.6697303366596303 0.0 0.0 0.0 9.922408791295783 0.0 0.0 0.0 9.922408791295783" Properties=species:S:1:pos:R:3:initial_magmoms:R:1:castep_labels:S:1:forces:R:3 n_minim_iter=11 energy=-63.141109234062 stress="0.0033264015867950237 -0.0 -0.0 -0.0 0.006826481397275085 0.0 -0.0 0.0 0.006826481397275085" free_energy=-63.141109234062 pbc="T T T"
P        3.71947767       2.65969026       0.83160279       0.00000000 NULL      -0.50585600       0.49698500       0.02972200
P        1.88461250       7.26271854       9.09080600       0.00000000 NULL      -0.50585600      -0.49698500      -0.02972200
P        2.80204509       0.83160279       7.26271854       0.00000000 NULL      -0.50585800       0.02972400      -0.49698600
P        0.96717992       9.09080600       2.65969026       0.00000000 NULL      -0.50585600      -0.02972200       0.49698500
P        2.65862380       9.39497898       5.47899751       0.00000000 NULL       0.08092400       0.13563400       0.17625000
P        0.82375863       0.52742981       4.44341128       0.00000000 NULL       0.08092500      -0.13563300      -0.17625000
P        1.74119121       5.47899751       0.52742981       0.00000000 NULL       0.08092500       0.17625100      -0.13563400
P       -0.09367396       4.44341128       9.39497898       0.00000000 NULL       0.08092400      -0.17625000       0.13563300
P        3.01319674       8.54768150       0.44654153       0.00000000 NULL       0.42493000       0.33655500      -0.20618000
P        1.17833157       1.37472729       9.47586726       0.00000000 NULL       0.42493200      -0.33655500       0.20618100
P        2.09576416       0.44654153       1.37472729       0.00000000 NULL       0.42493100      -0.20618100      -0.33655500
P        0.26089899       9.47586726       8.54768150       0.00000000 NULL       0.42493400       0.20618000       0.33655600
12
Lattice="3.60049112608905 0.0 0.0 0.0 9.788814186145025 0.0 0.0 0.0 9.788814186145025" Properties=species:S:1:pos:R:3:initial_magmoms:R:1:castep_labels:S:1:forces:R:3 n_minim_iter=12 energy=-63.502061973022 stress="0.0006558798482725702 -0.0 -0.0 -0.0 -0.005147908987652535 0.0 -0.0 0.0 -0.005147908987652535" free_energy=-63.502061973022 pbc="T T T"
P        3.60843062       2.70121736       0.87932649       0.00000000 NULL      -0.57217900       0.04090300       0.53806800
P        1.80818506       7.08759682       8.90948770       0.00000000 NULL      -0.57218000      -0.04090300      -0.53806800
P        2.70830784       0.87932649       7.08759682       0.00000000 NULL      -0.57218000       0.53806900      -0.04090300
P        0.90806228       8.90948770       2.70121736       0.00000000 NULL      -0.57218000      -0.53806800       0.04090300
P        2.55997671       9.26112016       5.44035999       0.00000000 NULL       0.06675300      -0.17465300      -0.27823800
P        0.75973115       0.52769403       4.34845420       0.00000000 NULL       0.06675400       0.17465300       0.27823700
P        1.65985393       5.44035999       0.52769403       0.00000000 NULL       0.06675400      -0.27823700       0.17465300
P       -0.14039164       4.34845420       9.26112016       0.00000000 NULL       0.06675300       0.27823800      -0.17465300
P        3.04569972       8.36001286       0.27573045       0.00000000 NULL       0.50542600       0.50829600       0.00350100
P        1.24545416       1.42880133       9.51308373       0.00000000 NULL       0.50542600      -0.50829700      -0.00350100
P        2.14557694       0.27573045       1.42880133       0.00000000 NULL       0.50542600       0.00350100      -0.50829700
P        0.34533138       9.51308373       8.36001286       0.00000000 NULL       0.50542700      -0.00350100       0.50829700
12
Lattice="3.4230796925246683 0.0 0.0 0.0 9.71374097430833 0.0 0.0 0.0 9.71374097430833" Properties=species:S:1:pos:R:3:initial_magmoms:R:1:castep_labels:S:1:forces:R:3 n_minim_iter=13 energy=-63.982365852751 stress="0.0029006712820575 -0.0 -0.0 -0.0 0.0011215800986648912 -0.0 -0.0 -0.0 0.0011215800986648912" free_energy=-63.982365852751 pbc="T T T"
P        3.38188643       2.70481856       1.08344531       0.00000000 NULL      -0.67967600       0.02846000       0.08854200
P        1.67034658       7.00892241       8.63029566       0.00000000 NULL      -0.67967700      -0.02846100      -0.08854300
P        2.52611650       1.08344531       7.00892241       0.00000000 NULL      -0.67967600       0.08854200      -0.02846000
P        0.81457666       8.63029566       2.70481856       0.00000000 NULL      -0.67967700      -0.08854300       0.02846100
P        2.28892714       9.20688634       5.47362905       0.00000000 NULL       0.29738700       0.23371900      -0.48886100
P        0.57738729       0.50685464       4.24011193       0.00000000 NULL       0.29738600      -0.23371900       0.48886100
P        1.43315722       5.47362905       0.50685464       0.00000000 NULL       0.29738600      -0.48886100      -0.23371900
P       -0.27838263       4.24011193       9.20688634       0.00000000 NULL       0.29738700       0.48886100       0.23371900
P        3.08927645       8.20211265       0.01316845       0.00000000 NULL       0.38229100       0.40346900      -0.17098200
P        1.37773661       1.51162833       9.70057253       0.00000000 NULL       0.38228900      -0.40346800       0.17098300
P        2.23350653       0.01316845       1.51162833       0.00000000 NULL       0.38229100      -0.17098200      -0.40346900
P        0.52196669       9.70057253       8.20211265       0.00000000 NULL       0.38228900       0.17098300       0.40346800
12
Lattice="3.342195163871648 0.0 0.0 0.0 9.64079677625263 0.0 0.0 0.0 9.64079677625263" Properties=species:S:1:pos:R:3:initial_magmoms:R:1:castep_labels:S:1:forces:R:3 n_minim_iter=14 energy=-64.230041249674 stress="0.0012005529098952422 0.0 0.0 0.0 -0.003287436684491125 -0.0 0.0 -0.0 -0.003287436684491125" free_energy=-64.230041249674 pbc="T T T"
P        3.23687748       2.69012439       1.14200026       0.00000000 NULL      -0.37284800       0.11105700       0.08870000
P        1.56577990       6.95067239       8.49879652       0.00000000 NULL      -0.37284700      -0.11105700      -0.08870000
P        2.40132869       1.14200026       6.95067239       0.00000000 NULL      -0.37284800       0.08870000      -0.11105800
P        0.73023111       8.49879652       2.69012439       0.00000000 NULL      -0.37284700      -0.08870000       0.11105700
P        2.19048870       9.14126035       5.44242123       0.00000000 NULL       0.37973400       0.19443800      -0.40443100
P        0.51939112       0.49953643       4.19837554       0.00000000 NULL       0.37973500      -0.19443800       0.40443100
P        1.35493991       5.44242123       0.49953643       0.00000000 NULL       0.37973500      -0.40443100      -0.19443800
P       -0.31615767       4.19837554       9.14126035       0.00000000 NULL       0.37973400       0.40443100       0.19443800
P        3.12573088       8.09373997      -0.12567942       0.00000000 NULL      -0.00688800       0.38653200      -0.20248100
P        1.45463330       1.54705681       9.76647620       0.00000000 NULL      -0.00688700      -0.38653200       0.20248100
P        2.29018209      -0.12567942       1.54705681       0.00000000 NULL      -0.00688800      -0.20248100      -0.38653200
P        0.61908450       9.76647620       8.09373997       0.00000000 NULL      -0.00688700       0.20248100       0.38653200
12
Lattice="3.273866765461615 0.0 0.0 0.0 9.75025864529609 0.0 0.0 0.0 9.75025864529609" Properties=species:S:1:pos:R:3:initial_magmoms:R:1:castep_labels:S:1:forces:R:3 n_minim_iter=15 energy=-64.322436506564 stress="-0.007003117814606956 -0.0 -0.0 -0.0 0.0014161486337038052 0.0 -0.0 0.0 0.0014161486337038052" free_energy=-64.322436506564 pbc="T T T"
P        3.13697179       2.73949108       1.17632390       0.00000000 NULL      -0.24782000       0.17063900       0.11170000
P        1.50003841       7.01076757       8.57393474       0.00000000 NULL      -0.24782200      -0.17064000      -0.11170000
P        2.31850510       1.17632390       7.01076757       0.00000000 NULL      -0.24782000       0.11170000      -0.17063900
P        0.68157172       8.57393474       2.73949108       0.00000000 NULL      -0.24782200      -0.11170000       0.17063900
P        2.16869588       9.25359606       5.51949529       0.00000000 NULL       0.30353700       0.26842200      -0.44184700
P        0.53176250       0.49666259       4.23076335       0.00000000 NULL       0.30353600      -0.26842200       0.44184700
P        1.35022919       5.51949529       0.49666259       0.00000000 NULL       0.30353600      -0.44184700      -0.26842200
P       -0.28670419       4.23076335       9.25359606       0.00000000 NULL       0.30353700       0.44184700       0.26842200
P        3.07256863       8.17372856      -0.21062360       0.00000000 NULL      -0.05571400       0.54490500      -0.08881700
P        1.43563525       1.57653008       9.96088225       0.00000000 NULL      -0.05571600      -0.54490500       0.08881800
P        2.25410194      -0.21062360       1.57653008       0.00000000 NULL      -0.05571400      -0.08881800      -0.54490600
P        0.61716855       9.96088225       8.17372856       0.00000000 NULL      -0.05571600       0.08881800       0.54490500
12
Lattice="3.3077406987569615 0.0 0.0 0.0 9.758411583549005 0.0 0.0 0.0 9.758411583549005" Properties=species:S:1:pos:R:3:initial_magmoms:R:1:castep_labels:S:1:forces:R:3 n_minim_iter=16 energy=-64.509917521934 stress="-0.0002522025299812399 -0.0 0.0 -0.0 0.002406876939258276 0.0 0.0 0.0 0.002406908686807367" free_energy=-64.509917521934 pbc="T T T"
P        3.12060435       2.75053584       1.17324752       0.00000000 NULL       0.04616100      -0.02753900       0.06078000
P        1.46673400       7.00787574       8.58516406       0.00000000 NULL       0.04615900       0.02753900      -0.06078000
P        2.29366917       1.17324752       7.00787574       0.00000000 NULL       0.04616100       0.06078000       0.02753900
P        0.63979882       8.58516406       2.75053584       0.00000000 NULL       0.04615900      -0.06078000      -0.02753900
P        2.27804602       9.27380834       5.49388187       0.00000000 NULL       0.07528200      -0.02091300       0.04602600
P        0.62417567       0.48460324       4.26452971       0.00000000 NULL       0.07528100       0.02091300      -0.04602600
P        1.45111084       5.49388187       0.48460324       0.00000000 NULL       0.07528100       0.04602600       0.02091300
P       -0.20275951       4.26452971       9.27380834       0.00000000 NULL       0.07528200      -0.04602600      -0.02091300
P        3.06627398       8.20394511      -0.22931841       0.00000000 NULL      -0.12144000       0.27948600      -0.11987500
P        1.41240364       1.55446647       9.98773000       0.00000000 NULL      -0.12144200      -0.27948600       0.11987600
P        2.23933881      -0.22931841       1.55446647       0.00000000 NULL      -0.12144000      -0.11987500      -0.27948600
P        0.58546846       9.98773000       8.20394511       0.00000000 NULL      -0.12144200       0.11987600       0.27948500
12
Lattice="3.315098565692457 0.0 0.0 0.0 9.739309482734091 0.0 0.0 0.0 9.739309482734091" Properties=species:S:1:pos:R:3:initial_magmoms:R:1:castep_labels:S:1:forces:R:3 n_minim_iter=17 energy=-64.562810821799 stress="0.003160620986674662 -0.0 -0.0 -0.0 0.0064511827834388 0.0 -0.0 0.0 0.0064511827834388" free_energy=-64.562810821799 pbc="T T T"
P        3.10653404       2.75010031       1.23063830       0.00000000 NULL       0.07430100      -0.06920900      -0.10437800
P        1.44898476       6.98920918       8.50867118       0.00000000 NULL       0.07429800       0.06920800       0.10437800
P        2.27775940       1.23063830       6.98920918       0.00000000 NULL       0.07430100      -0.10437800       0.06920900
P        0.62021012       8.50867118       2.75010031       0.00000000 NULL       0.07429800       0.10437700      -0.06920900
P        2.34013363       9.27435654       5.50235464       0.00000000 NULL      -0.06458600       0.04262700       0.01702100
P        0.68258434       0.46495294       4.23695485       0.00000000 NULL      -0.06458800      -0.04262700      -0.01702100
P        1.51135898       5.50235464       0.46495294       0.00000000 NULL      -0.06458800       0.01702100      -0.04262700
P       -0.14619030       4.23695485       9.27435654       0.00000000 NULL      -0.06458600      -0.01702100       0.04262700
P        3.03708727       8.20559172      -0.28037882       0.00000000 NULL      -0.00971100       0.18267700      -0.16294000
P        1.37953799       1.53371776      10.01968831       0.00000000 NULL      -0.00971400      -0.18267600       0.16294100
P        2.20831263      -0.28037882       1.53371776       0.00000000 NULL      -0.00971100      -0.16294000      -0.18267700
P        0.55076335      10.01968831       8.20559172       0.00000000 NULL      -0.00971400       0.16294000       0.18267600
12
Lattice="3.316106322990763 0.0 0.0 0.0 9.57390775286409 0.0 0.0 0.0 9.57390775286409" Properties=species:S:1:pos:R:3:initial_magmoms:R:1:castep_labels:S:1:forces:R:3 n_minim_iter=18 energy=-64.639214668938 stress="0.0035512030878741925 0.0 -0.0 0.0 0.004103524724331779 -0.0 -0.0 -0.0 0.004103524724331779" free_energy=-64.639214668938 pbc="T T T"
P        3.07917060       2.70930835       1.31027985       0.00000000 NULL       0.24948100       0.03842100      -0.13528800
P        1.42111744       6.86459940       8.26362790       0.00000000 NULL       0.24948300      -0.03842100       0.13528800
P        2.25014402       1.31027985       6.86459940       0.00000000 NULL       0.24948100      -0.13528800      -0.03842100
P        0.59209086       8.26362790       2.70930835       0.00000000 NULL       0.24948300       0.13528800       0.03842100
P        2.35999048       9.13553493       5.42572950       0.00000000 NULL      -0.14163400      -0.00828800       0.15302900
P        0.70193731       0.43837282       4.14817825       0.00000000 NULL      -0.14163200       0.00828800      -0.15302900
P        1.53096389       5.42572950       0.43837282       0.00000000 NULL      -0.14163200       0.15302900       0.00828800
P       -0.12708927       4.14817825       9.13553493       0.00000000 NULL      -0.14163400      -0.15302900      -0.00828800
P        3.04717422       8.08470087      -0.39994261       0.00000000 NULL      -0.10785000       0.16876300      -0.14336100
P        1.38912106       1.48920688       9.97385037       0.00000000 NULL      -0.10784800      -0.16876300       0.14336100
P        2.21814764      -0.39994261       1.48920688       0.00000000 NULL      -0.10785000      -0.14336200      -0.16876300
P        0.56009448       9.97385037       8.08470087       0.00000000 NULL      -0.10784800       0.14336100       0.16876400
12
Lattice="3.2996334549632365 0.0 0.0 0.0 9.405466209597162 0.0 0.0 0.0 9.405466209597162" Properties=species:S:1:pos:R:3:initial_magmoms:R:1:castep_labels:S:1:forces:R:3 n_minim_iter=19 energy=-64.740185108396 stress="0.0012736097802992503 0.0 -0.0 0.0 0.0021784222374620302 -0.0 -0.0 -0.0 0.0021784222374620302" free_energy=-64.740185108396 pbc="T T T"
P        3.06577503       2.68398856       1.39494492       0.00000000 NULL       0.12382800       0.02961900      -0.15190500
P        1.41595830       6.72147765       8.01052129       0.00000000 NULL       0.12383100      -0.02961900       0.15190500
P        2.24086667       1.39494492       6.72147765       0.00000000 NULL       0.12382800      -0.15190500      -0.02961900
P        0.59104994       8.01052129       2.68398856       0.00000000 NULL       0.12383100       0.15190500       0.02961900
P        2.33559393       8.99297968       5.36137686       0.00000000 NULL      -0.11676000       0.00914200       0.11766600
P        0.68577720       0.41248653       4.04408935       0.00000000 NULL      -0.11675700      -0.00914200      -0.11766600
P        1.51068556       5.36137686       0.41248653       0.00000000 NULL      -0.11675700       0.11766700      -0.00914200
P       -0.13913117       4.04408935       8.99297968       0.00000000 NULL      -0.11676000      -0.11766600       0.00914200
P        3.04281208       7.98762317      -0.55141923       0.00000000 NULL      -0.00707400       0.04670100      -0.11387800
P        1.39299536       1.41784304       9.95688544       0.00000000 NULL      -0.00707000      -0.04670100       0.11387700
P        2.21790372      -0.55141923       1.41784304       0.00000000 NULL      -0.00707300      -0.11387800      -0.04670000
P        0.56808699       9.95688544       7.98762317       0.00000000 NULL      -0.00707000       0.11387800       0.04670100
12
Lattice="3.2959191790391675 0.0 0.0 0.0 9.32663048366804 0.0 0.0 0.0 9.32663048366804" Properties=species:S:1:pos:R:3:initial_magmoms:R:1:castep_labels:S:1:forces:R:3 n_minim_iter=20 energy=-64.786517988059 stress="0.0012272108488753848 0.0 -0.0 0.0 0.001121211139640156 -0.0 -0.0 -0.0 0.001121211139640156" free_energy=-64.786517988059 pbc="T T T"
P        3.06781111       2.67627730       1.43460669       0.00000000 NULL       0.07971000       0.05533300      -0.05905300
P        1.41985152       6.65035318       7.89202380       0.00000000 NULL       0.07971100      -0.05533300       0.05905200
P        2.24383131       1.43460669       6.65035318       0.00000000 NULL       0.07971000      -0.05905300      -0.05533300
P        0.59587172       7.89202380       2.67627730       0.00000000 NULL       0.07971100       0.05905300       0.05533300
P        2.30143621       8.93026367       5.33779823       0.00000000 NULL      -0.04260500      -0.02187300       0.00846000
P        0.65347662       0.39636682       3.98883226       0.00000000 NULL      -0.04260400       0.02187300      -0.00846000
P        1.47745641       5.33779823       0.39636682       0.00000000 NULL      -0.04260400       0.00846000       0.02187300
P       -0.17050318       3.98883226       8.93026367       0.00000000 NULL      -0.04260500      -0.00846000      -0.02187300
P        3.06542910       7.94648827      -0.66169239       0.00000000 NULL      -0.03710700       0.07621300      -0.04032600
P        1.41746951       1.38014221       9.98832287       0.00000000 NULL      -0.03710500      -0.07621300       0.04032600
P        2.24144930      -0.66169239       1.38014221       0.00000000 NULL      -0.03710700      -0.04032600      -0.07621300
P        0.59348971       9.98832287       7.94648827       0.00000000 NULL      -0.03710500       0.04032600       0.07621300
12
Lattice="3.2888613382630107 0.0 0.0 0.0 9.292215776456638 0.0 0.0 0.0 9.292215776456638" Properties=species:S:1:pos:R:3:initial_magmoms:R:1:castep_labels:S:1:forces:R:3 n_minim_iter=21 energy=-64.797200503106 stress="-3.190392279713e-05 0.0 -0.0 0.0 0.00025090005510987996 -0.0 -0.0 -0.0 0.00025090005510987996" free_energy=-64.797200503106 pbc="T T T"
P        3.06482379       2.67622827       1.44133322       0.00000000 NULL       0.03058400       0.00300500      -0.03353700
P        1.42039313       6.61598751       7.85088255       0.00000000 NULL       0.03058700      -0.00300500       0.03353700
P        2.24260846       1.44133322       6.61598751       0.00000000 NULL       0.03058400      -0.03353700      -0.00300500
P        0.59817779       7.85088255       2.67622827       0.00000000 NULL       0.03058700       0.03353700       0.00300500
P        2.28755677       8.89511492       5.32116742       0.00000000 NULL      -0.01820400      -0.01453300       0.03104300
P        0.64312610       0.39710085       3.97104836       0.00000000 NULL      -0.01820200       0.01453300      -0.03104300
P        1.46534144       5.32116742       0.39710085       0.00000000 NULL      -0.01820200       0.03104300       0.01453300
P       -0.17908923       3.97104836       8.89511492       0.00000000 NULL      -0.01820400      -0.03104300      -0.01453300
P        3.06423432       7.93295187      -0.69622806       0.00000000 NULL      -0.01238300       0.00575300      -0.03453200
P        1.41980365       1.35926391       9.98844383       0.00000000 NULL      -0.01238100      -0.00575300       0.03453200
P        2.24201899      -0.69622806       1.35926391       0.00000000 NULL      -0.01238300      -0.03453300      -0.00575300
P        0.59758832       9.98844383       7.93295187       0.00000000 NULL      -0.01238100       0.03453200       0.00575300
