9
Lattice="4.286859999999999 -9.265112972380811e-16 -2.3425885045966555e-16 1.3659032649952334 6.844835769744617 -5.099936766082187e-16 1.3097293523794675 3.1518822996102647 6.911717291999088" Properties=species:S:1:pos:R:3:initial_magmoms:R:1:castep_labels:S:1 n_minim_iter=1 pbc="T T T"
P        1.58341756       2.48233448       2.11343588       0.00000000 NULL
P        3.01011093       4.49590295       4.56304457       0.00000000 NULL
P        6.03173232       6.79441866       6.73925198       0.00000000 NULL
P        2.77145803       8.09336461       3.74415190       0.00000000 NULL
P        3.42987285       4.69688063       1.09057775       0.00000000 NULL
P        1.29008671       0.14921158       0.14290736       0.00000000 NULL
P        3.74912417       6.35888678       4.10986192       0.00000000 NULL
P        5.10288255       6.04394068       0.20227694       0.00000000 NULL
P        3.49643498       7.80783469       6.40060617       0.00000000 NULL
9
Lattice="4.2935305571201 -0.0006694699392041502 0.0002561797651089074 1.3669597314912356 6.849843871208012 6.903906433085556e-05 1.3116881698164216 3.154069387131778 6.915197948650752" Properties=species:S:1:pos:R:3:initial_magmoms:R:1:castep_labels:S:1 n_minim_iter=2 pbc="T T T"
P        1.58567262       2.48395409       2.11447339       0.00000000 NULL
P        3.01429815       4.49879493       4.56549639       0.00000000 NULL
P        6.04038714       6.79835835       6.74285873       0.00000000 NULL
P        2.77451580       8.09919811       3.74619057       0.00000000 NULL
P        3.43464099       4.69994560       1.09170944       0.00000000 NULL
P        1.29219970       0.14931048       0.14305416       0.00000000 NULL
P        3.75443543       6.36307501       4.11211189       0.00000000 NULL
P        5.10965009       6.04790469       0.20271440       0.00000000 NULL
P        3.50113688       7.81321648       6.40359208       0.00000000 NULL
9
Lattice="4.52202691061155 -0.024112960640324407 0.009657317505487616 1.4023322585984346 7.0147867345354795 0.0034490300868339377 1.3794196245366908 3.226687032369934 7.031382892593772" Properties=species:S:1:pos:R:3:initial_magmoms:R:1:castep_labels:S:1 n_minim_iter=3 pbc="T T T"
P        1.66299689       2.53707303       2.14943757       0.00000000 NULL
P        3.15777840       4.59386655       4.64807496       0.00000000 NULL
P        6.33701729       6.92699625       6.86460809       0.00000000 NULL
P        2.87852007       8.29152343       3.81542832       0.00000000 NULL
P        3.59773237       4.80020946       1.13090349       0.00000000 NULL
P        1.36466012       0.15240105       0.14822542       0.00000000 NULL
P        3.93651916       6.50058242       4.18833906       0.00000000 NULL
P        5.34054004       6.17748072       0.21900741       0.00000000 NULL
P        3.66223524       7.99057988       6.50405165       0.00000000 NULL
9
Lattice="4.601427633909236 -0.03551328908422963 0.026537380934118275 1.4094284388505556 6.937439628563388 0.030407256149402314 1.4225120490060565 3.211050814304983 7.029908981764129" Properties=species:S:1:pos:R:3:initial_magmoms:R:1:castep_labels:S:1 n_minim_iter=4 pbc="T T T"
P        1.69525642       2.51055453       2.15620702       0.00000000 NULL
P        3.21771651       4.55236192       4.66423109       0.00000000 NULL
P        6.45622546       6.85437793       6.89351075       0.00000000 NULL
P        2.91682133       8.20955917       3.84404730       0.00000000 NULL
P        3.65603735       4.74410876       1.16382689       0.00000000 NULL
P        1.39101670       0.15055356       0.15330941       0.00000000 NULL
P        4.01118912       6.43416117       4.21289861       0.00000000 NULL
P        5.41616920       6.10208661       0.25782379       0.00000000 NULL
P        3.73166317       7.91836505       6.52034507       0.00000000 NULL
9
Lattice="4.7631868937030095 -0.05668857943993241 0.060866388035853015 1.427158459479661 6.70778147641118 0.07446019263308506 1.511712820599264 3.1353744743576013 6.988353866442575" Properties=species:S:1:pos:R:3:initial_magmoms:R:1:castep_labels:S:1 n_minim_iter=5 pbc="T T T"
P        1.76285407       2.42730209       2.15273811       0.00000000 NULL
P        3.33958476       4.41265655       4.66884140       0.00000000 NULL
P        6.70201488       6.62698071       6.90923387       0.00000000 NULL
P        2.99363965       7.95137187       3.87287295       0.00000000 NULL
P        3.77692399       4.57976093       1.21912479       0.00000000 NULL
P        1.44565436       0.14560423       0.16260035       0.00000000 NULL
P        4.17199100       6.22746306       4.23258058       0.00000000 NULL
P        5.57308343       5.88668422       0.32579927       0.00000000 NULL
P        3.87721382       7.68053104       6.51000623       0.00000000 NULL
9
Lattice="4.94098815439542 -0.05458368019875271 0.07250999652411433 1.4871713855182478 6.525539257752223 0.03787794089975266 1.5863556255449005 3.011104675349868 6.918251769106511" Properties=species:S:1:pos:R:3:initial_magmoms:R:1:castep_labels:S:1 n_minim_iter=6 pbc="T T T"
P        1.84105842       2.34589849       2.10897130       0.00000000 NULL
P        3.46497302       4.25789037       4.61943014       0.00000000 NULL
P        6.97108567       6.40271427       6.83237699       0.00000000 NULL
P        3.09388150       7.71346731       3.81156876       0.00000000 NULL
P        3.92656289       4.44934049       1.20832596       0.00000000 NULL
P        1.50708971       0.14759245       0.16323795       0.00000000 NULL
P        4.37386356       6.03960652       4.17114011       0.00000000 NULL
P        5.78248260       5.73194768       0.30187145       0.00000000 NULL
P        4.04762528       7.43961638       6.41135241       0.00000000 NULL
9
Lattice="5.003417787055715 -0.04993076434871415 0.07040476725424846 1.5144923812883608 6.343007350158934 0.0035097010226763444 1.6054559964258321 2.8937652938976424 6.82285608323801" Properties=species:S:1:pos:R:3:initial_magmoms:R:1:castep_labels:S:1 n_minim_iter=7 pbc="T T T"
P        1.86977320       2.26805992       2.06011839       0.00000000 NULL
P        3.50048426       4.11090098       4.54728215       0.00000000 NULL
P        7.06205595       6.19310059       6.71934699       0.00000000 NULL
P        3.12114596       7.47891914       3.73223835       0.00000000 NULL
P        3.98080306       4.32167600       1.17836146       0.00000000 NULL
P        1.53036095       0.14743432       0.15978492       0.00000000 NULL
P        4.45552052       5.85654173       4.08975891       0.00000000 NULL
P        5.86145917       5.57591720       0.26766238       0.00000000 NULL
P        4.10731957       7.20384244       6.29408609       0.00000000 NULL
9
Lattice="5.064879640871709 -0.0433709376312741 0.061809400145942696 1.5445497853927264 6.279095768590265 -0.05271575140171804 1.6151986631422892 2.8113678910530853 6.77924427165158" Properties=species:S:1:pos:R:3:initial_magmoms:R:1:castep_labels:S:1 n_minim_iter=8 pbc="T T T"
P        1.89617084       2.22935744       2.02094888       0.00000000 NULL
P        3.52952324       4.02815982       4.49906972       0.00000000 NULL
P        7.14430267       6.08276084       6.63779604       0.00000000 NULL
P        3.14541507       7.37464467       3.65894621       0.00000000 NULL
P        4.03374589       4.27290057       1.14015246       0.00000000 NULL
P        1.55338451       0.15130245       0.15534458       0.00000000 NULL
P        4.53355618       5.77280868       4.02166175       0.00000000 NULL
P        5.94095512       5.52666930       0.21077812       0.00000000 NULL
P        4.16209849       7.08451105       6.20731627       0.00000000 NULL
9
Lattice="5.070204609439789 -0.039694368274315724 0.05641156905415215 1.5521168403927903 6.186863047834836 -0.07580290251828738 1.6108257885947583 2.747904743282194 6.721340672855459" Properties=species:S:1:pos:R:3:initial_magmoms:R:1:castep_labels:S:1 n_minim_iter=9 pbc="T T T"
P        1.90016680       2.18898013       1.99059075       0.00000000 NULL
P        3.52444960       3.95110270       4.45297827       0.00000000 NULL
P        7.14860001       5.97378386       6.56343635       0.00000000 NULL
P        3.13890831       7.25401109       3.60648126       0.00000000 NULL
P        4.03979350       4.20852818       1.11801876       0.00000000 NULL
P        1.55782833       0.15261582       0.15225598       0.00000000 NULL
P        4.55098476       5.67868654       3.96886624       0.00000000 NULL
P        5.95092189       5.44943239       0.18515652       0.00000000 NULL
P        4.16893492       6.96093762       6.13393165       0.00000000 NULL
9
Lattice="5.098300653907778 -0.03474547025635081 0.049154883356613686 1.56897087179257 6.14307716951425 -0.1056854791317025 1.6113484084546537 2.700688492114959 6.685129699787027" Properties=species:S:1:pos:R:3:initial_magmoms:R:1:castep_labels:S:1 n_minim_iter=10 pbc="T T T"
P        1.91278678       2.16521372       1.96479845       0.00000000 NULL
P        3.53407202       3.90185864       4.41820948       0.00000000 NULL
P        7.18393204       5.90722906       6.50433896       0.00000000 NULL
P        3.14692383       7.18765593       3.55908537       0.00000000 NULL
P        4.06463038       4.17685304       1.09494025       0.00000000 NULL
P        1.56962051       0.15599661       0.14888057       0.00000000 NULL
P        4.58939263       5.62664051       3.92374430       0.00000000 NULL
P        5.98905668       5.41674519       0.15270037       0.00000000 NULL
P        4.19474056       6.88684775       6.07475636       0.00000000 NULL
9
Lattice="5.128286204063857 -0.021632087864463596 0.035753656223431476 1.5994631924466636 6.026489464213929 -0.15302971384692676 1.6085443280147207 2.605589950333702 6.590817985435082" Properties=species:S:1:pos:R:3:initial_magmoms:R:1:castep_labels:S:1 n_minim_iter=11 pbc="T T T"
P        1.93124133       2.11125948       1.90959901       0.00000000 NULL
P        3.53913614       3.79439373       4.33909035       0.00000000 NULL
P        7.22456367       5.76057204       6.37248260       0.00000000 NULL
P        3.15223972       7.02765308       3.46311254       0.00000000 NULL
P        4.09709354       4.09757527       1.05356739       0.00000000 NULL
P        1.58620548       0.16390378       0.14214957       0.00000000 NULL
P        4.64825873       5.50482483       3.82952716       0.00000000 NULL
P        6.03863926       5.32947061       0.09944224       0.00000000 NULL
P        4.23342005       6.71754018       5.94557230       0.00000000 NULL
9
Lattice="5.204743750527709 0.024715650352914443 0.012829852936230764 1.6978280256218934 5.899373349208417 -0.23623540526498693 1.6290204949411924 2.477772946027607 6.449122646801822" Properties=species:S:1:pos:R:3:initial_magmoms:R:1:castep_labels:S:1 n_minim_iter=12 pbc="T T T"
P        1.99042892       2.05153385       1.81649880       0.00000000 NULL
P        3.58440310       3.66571060       4.21787823       0.00000000 NULL
P        7.36675092       5.60037745       6.16315280       0.00000000 NULL
P        3.21062748       6.84232439       3.30536130       0.00000000 NULL
P        4.19740120       4.02376836       0.99006693       0.00000000 NULL
P        1.62949360       0.19251597       0.12931989       0.00000000 NULL
P        4.81229686       5.37793591       3.68102465       0.00000000 NULL
P        6.18409966       5.27193856       0.00869784       0.00000000 NULL
P        4.37031725       6.51506753       5.73928971       0.00000000 NULL
9
Lattice="5.128415171137128 0.05772407165385703 0.02645035194717321 1.7262123831753162 5.751054987810214 -0.20980653305242955 1.6519300176507872 2.437022590586805 6.3289487582849375" Properties=species:S:1:pos:R:3:initial_magmoms:R:1:castep_labels:S:1 n_minim_iter=13 pbc="T T T"
P        1.99284666       2.01063329       1.78049950       0.00000000 NULL
P        3.57197363       3.59710833       4.15637772       0.00000000 NULL
P        7.33279990       5.50643523       6.07171017       0.00000000 NULL
P        3.21750551       6.68461984       3.26154461       0.00000000 NULL
P        4.17432421       3.94464564       1.00202249       0.00000000 NULL
P        1.61911844       0.20824302       0.12946632       0.00000000 NULL
P        4.81310662       5.27505150       3.63820261       0.00000000 NULL
P        6.13799195       5.17790934       0.04323403       0.00000000 NULL
P        4.39749211       6.37618192       5.65002867       0.00000000 NULL
9
Lattice="5.194948577814627 0.06605026508927224 0.024191156768025406 1.760706074143666 5.825086365616129 -0.2219528367808714 1.6747366917585966 2.460896364364754 6.3820088788773255" Properties=species:S:1:pos:R:3:initial_magmoms:R:1:castep_labels:S:1 n_minim_iter=14 pbc="T T T"
P        2.02471792       2.03666325       1.78841721       0.00000000 NULL
P        3.61960372       3.63954239       4.18824703       0.00000000 NULL
P        7.43618070       5.57413593       6.11336328       0.00000000 NULL
P        3.26212259       6.76694981       3.27836559       0.00000000 NULL
P        4.23438843       3.99766634       1.00746593       0.00000000 NULL
P        1.64440076       0.21663797       0.12839962       0.00000000 NULL
P        4.89002787       5.34261725       3.66176944       0.00000000 NULL
P        6.22659347       5.25482075       0.03302116       0.00000000 NULL
P        4.46774890       6.45169117       5.68815764       0.00000000 NULL
9
Lattice="5.194893632433247 0.07376486080787292 0.027934132935416207 1.7730064736547198 5.812767182387013 -0.2189044575059778 1.6864268162821423 2.4583226773720255 6.372508429220653" Properties=species:S:1:pos:R:3:initial_magmoms:R:1:castep_labels:S:1 n_minim_iter=15 pbc="T T T"
P        2.03253098       2.03445429       1.78420909       0.00000000 NULL
P        3.62929294       3.63577309       4.18559122       0.00000000 NULL
P        7.45450615       5.57060052       6.10878128       0.00000000 NULL
P        3.27389311       6.75455348       3.27530778       0.00000000 NULL
P        4.24303898       3.99375837       1.01257304       0.00000000 NULL
P        1.64841920       0.22136368       0.12849927       0.00000000 NULL
P        4.90714866       5.33711622       3.66142510       0.00000000 NULL
P        6.23653136       5.25296285       0.03935297       0.00000000 NULL
P        4.48988764       6.44155723       5.68236696       0.00000000 NULL
9
Lattice="5.201287676166189 0.09307958037584484 0.03614855115054194 1.8058836211689375 5.7919055021711925 -0.21180674012007242 1.715825473086162 2.456307771349496 6.355501688553666" Properties=species:S:1:pos:R:3:initial_magmoms:R:1:castep_labels:S:1 n_minim_iter=16 pbc="T T T"
P        2.05388296       2.03258223       1.77539559       0.00000000 NULL
P        3.65695173       3.63273582       4.18281250       0.00000000 NULL
P        7.50783055       5.57153452       6.10252435       0.00000000 NULL
P        3.30656325       6.73517797       3.27073094       0.00000000 NULL
P        4.26946743       3.99077200       1.02545591       0.00000000 NULL
P        1.66060043       0.23338256       0.12847944       0.00000000 NULL
P        4.95464857       5.33246260       3.66360534       0.00000000 NULL
P        6.26906010       5.25705185       0.05378585       0.00000000 NULL
P        4.54887033       6.42755534       5.67353346       0.00000000 NULL
9
Lattice="5.245144118413217 0.18637352987351077 0.06813615841004188 1.968819994243558 5.720074767809311 -0.16939036503027133 1.8493919800421756 2.470585921870172 6.284191750153027" Properties=species:S:1:pos:R:3:initial_magmoms:R:1:castep_labels:S:1 n_minim_iter=17 pbc="T T T"
P        2.15535347       2.03737853       1.73897617       0.00000000 NULL
P        3.79468504       3.64532153       4.17556475       0.00000000 NULL
P        7.77194266       5.61783693       6.08090303       0.00000000 NULL
P        3.47105872       6.68076547       3.26081773       0.00000000 NULL
P        4.40475765       3.99815535       1.08674839       0.00000000 NULL
P        1.72469520       0.29044868       0.12682531       0.00000000 NULL
P        5.18293813       5.34235260       3.68133234       0.00000000 NULL
P        6.44174686       5.29935168       0.12256141       0.00000000 NULL
P        4.83072208       6.40548462       5.64688552       0.00000000 NULL
9
Lattice="5.365654325792542 0.2956856121376075 0.06610932015856373 2.181756394422527 5.7419701816208795 -0.0935562647420349 1.9633135077097348 2.57525445162476 6.237929148818298" Properties=species:S:1:pos:R:3:initial_magmoms:R:1:castep_labels:S:1 n_minim_iter=18 pbc="T T T"
P        2.27042100       2.09049767       1.70942832       0.00000000 NULL
P        3.97747362       3.76212430       4.18377442       0.00000000 NULL
P        8.11872820       5.82474136       6.07435387       0.00000000 NULL
P        3.69009464       6.76318858       3.28618417       0.00000000 NULL
P        4.60270296       4.08604010       1.14959427       0.00000000 NULL
P        1.83344963       0.35764708       0.11553530       0.00000000 NULL
P        5.44932301       5.46791857       3.71823517       0.00000000 NULL
P        6.72088597       5.43213430       0.18624633       0.00000000 NULL
P        5.15398017       6.54619051       5.66663069       0.00000000 NULL
9
Lattice="5.342700115483916 0.311853924096638 0.06738264255821792 2.2002585636623926 5.691298179157546 -0.09736806861975693 1.9702411091999443 2.550230053151915 6.17702014405549" Properties=species:S:1:pos:R:3:initial_magmoms:R:1:castep_labels:S:1 n_minim_iter=19 pbc="T T T"
P        2.27000119       2.07423161       1.68696588       0.00000000 NULL
P        3.98178723       3.73538660       4.14369859       0.00000000 NULL
P        8.11396335       5.78953591       6.01675516       0.00000000 NULL
P        3.70342173       6.70363592       3.24661186       0.00000000 NULL
P        4.60163898       4.05882015       1.13830405       0.00000000 NULL
P        1.83786721       0.36444241       0.11409428       0.00000000 NULL
P        5.44829007       5.42541822       3.68244439       0.00000000 NULL
P        6.71441780       5.39972482       0.18104642       0.00000000 NULL
P        5.16816379       6.49357228       5.61024352       0.00000000 NULL
9
Lattice="5.373787512640632 0.3213457546278575 0.06578832237867224 2.2253194236897835 5.709907853477702 -0.10132010532339836 1.9841472593502942 2.55682898879732 6.189937376183506" Properties=species:S:1:pos:R:3:initial_magmoms:R:1:castep_labels:S:1 n_minim_iter=20 pbc="T T T"
P        2.28669865       2.08214363       1.68634389       0.00000000 NULL
P        4.01115802       3.74991690       4.15115318       0.00000000 NULL
P        8.17028094       5.81473855       6.02665569       0.00000000 NULL
P        3.73335124       6.72505614       3.24804105       0.00000000 NULL
P        4.63499250       4.07562567       1.13921269       0.00000000 NULL
P        1.85532637       0.37062107       0.11316976       0.00000000 NULL
P        5.48827310       5.44492878       3.68798129       0.00000000 NULL
P        6.76280024       5.42477870       0.17607556       0.00000000 NULL
P        5.21066698       6.51660909       5.61971690       0.00000000 NULL
9
Lattice="5.386062655416666 0.3306254235853983 0.06477234690594912 2.2440474595034154 5.708511610243914 -0.10268074947255333 1.9930823316150454 2.5566126259450637 6.18157924784057" Properties=species:S:1:pos:R:3:initial_magmoms:R:1:castep_labels:S:1 n_minim_iter=21 pbc="T T T"
P        2.29576816       2.08332166       1.68090128       0.00000000 NULL
P        4.02859584       3.75322226       4.14543917       0.00000000 NULL
P        8.20062547       5.82271257       6.01795221       0.00000000 NULL
P        3.75363043       6.72432171       3.24035892       0.00000000 NULL
P        4.65343075       4.07909695       1.13753884       0.00000000 NULL
P        1.86634940       0.37569378       0.11225517       0.00000000 NULL
P        5.51035927       5.44717674       3.68276119       0.00000000 NULL
P        6.78898540       5.43138498       0.17315383       0.00000000 NULL
P        5.23771278       6.51918513       5.61178162       0.00000000 NULL
9
Lattice="5.419652922220757 0.3547294562898039 0.06201215447148631 2.2932371228817368 5.706395097442689 -0.10494652972806309 2.0166169379794465 2.5580659432801176 6.161877765229253" Properties=species:S:1:pos:R:3:initial_magmoms:R:1:castep_labels:S:1 n_minim_iter=22 pbc="T T T"
P        2.31978976       2.08732409       1.66793855       0.00000000 NULL
P        4.07497054       3.76368323       4.13220893       0.00000000 NULL
P        8.28163927       5.84623483       5.99784181       0.00000000 NULL
P        3.80753177       6.72498841       3.22271228       0.00000000 NULL
P        4.70239370       4.08932769       1.13408756       0.00000000 NULL
P        1.89548903       0.38880512       0.10998917       0.00000000 NULL
P        5.56910732       5.45522867       3.67103815       0.00000000 NULL
P        6.85919322       5.44982349       0.16659941       0.00000000 NULL
P        5.30915178       6.52894542       5.59388128       0.00000000 NULL
9
Lattice="5.456870281418568 0.3797976910300363 0.0594731245646721 2.3451220135189597 5.704355358092841 -0.10496944674177434 2.0423252037515542 2.5619013524364043 6.144299255983912" Properties=species:S:1:pos:R:3:initial_magmoms:R:1:castep_labels:S:1 n_minim_iter=23 pbc="T T T"
P        2.34539639       2.09222087       1.65648660       0.00000000 NULL
P        4.12537404       3.77628189       4.12110428       0.00000000 NULL
P        8.36961586       5.87325306       5.98142216       0.00000000 NULL
P        3.86593450       6.72731567       3.20811787       0.00000000 NULL
P        4.75458400       4.10026273       1.13226611       0.00000000 NULL
P        1.92667106       0.40215041       0.10804165       0.00000000 NULL
P        5.63223598       5.46501306       3.66210485       0.00000000 NULL
P        6.93537479       5.46887910       0.16202387       0.00000000 NULL
P        5.38572062       6.54173943       5.57979165       0.00000000 NULL
9
Lattice="5.495114261814921 0.40509670083087806 0.057151606448224146 2.3977024908178954 5.700545119638608 -0.1044203152435324 2.0688674953021806 2.5654657930077507 6.1271870453481" Properties=species:S:1:pos:R:3:initial_magmoms:R:1:castep_labels:S:1 n_minim_iter=24 pbc="T T T"
P        2.37121491       2.09673929       1.64564269       0.00000000 NULL
P        4.17732715       3.78836540       4.11043928       0.00000000 NULL
P        8.45973498       5.89957773       5.96622762       0.00000000 NULL
P        3.92595356       6.72805678       3.19419002       0.00000000 NULL
P        4.80714672       4.10985502       1.13073325       0.00000000 NULL
P        1.95880303       0.41532925       0.10634824       0.00000000 NULL
P        5.69621297       5.47334428       3.65392662       0.00000000 NULL
P        7.01359351       5.48619805       0.15788429       0.00000000 NULL
P        5.46385988       6.55354231       5.56673001       0.00000000 NULL
9
Lattice="5.535000995285785 0.4301550744791774 0.0551369160435527 2.4504221671678015 5.696572176342606 -0.10370137841559618 2.0962294570757036 2.5689898444101757 6.113018364196101" Properties=species:S:1:pos:R:3:initial_magmoms:R:1:castep_labels:S:1 n_minim_iter=25 pbc="T T T"
P        2.39736399       2.10127055       1.63599807       0.00000000 NULL
P        4.23080525       3.80044299       4.10175950       0.00000000 NULL
P        8.55226384       5.92581308       5.95452584       0.00000000 NULL
P        3.98703432       6.72877134       3.18193246       0.00000000 NULL
P        4.86006015       4.11882865       1.12980432       0.00000000 NULL
P        1.99190100       0.42821525       0.10495901       0.00000000 NULL
P        5.76110064       5.48118380       3.64779196       0.00000000 NULL
P        7.09405413       5.50288968       0.15399878       0.00000000 NULL
P        5.54332657       6.56549111       5.55665053       0.00000000 NULL
9
Lattice="5.576520732504826 0.4553542536106762 0.0543034740612692 2.5038869846138376 5.692749124914184 -0.10289978779071926 2.1260983937443374 2.572308685508861 6.100505138388051" Properties=species:S:1:pos:R:3:initial_magmoms:R:1:castep_labels:S:1 n_minim_iter=26 pbc="T T T"
P        2.42432629       2.10592157       1.62738196       0.00000000 NULL
P        4.28712707       3.81264684       4.09450046       0.00000000 NULL
P        8.64913241       5.95233693       5.94584212       0.00000000 NULL
P        4.05075334       6.72968137       3.17071184       0.00000000 NULL
P        4.91417177       4.12757733       1.12960717       0.00000000 NULL
P        2.02586497       0.44091607       0.10414119       0.00000000 NULL
P        5.82818630       5.48884554       3.64333094       0.00000000 NULL
P        7.17752934       5.51963697       0.15105879       0.00000000 NULL
P        5.62604817       6.57771387       5.54854674       0.00000000 NULL
9
Lattice="5.579943413319909 0.45737694766084513 0.05431992668434517 2.508207176895884 5.692506853530917 -0.1028332184060708 2.1286577950266325 2.5725802604621126 6.099591189243188" Properties=species:S:1:pos:R:3:initial_magmoms:R:1:castep_labels:S:1 n_minim_iter=27 pbc="T T T"
P        2.42652611       2.10632109       1.62675006       0.00000000 NULL
P        4.29182596       3.81366721       4.09400105       0.00000000 NULL
P        8.65716500       5.95452933       5.94533628       0.00000000 NULL
P        4.05601929       6.72983092       3.16986078       0.00000000 NULL
P        4.91856368       4.12828829       1.12963496       0.00000000 NULL
P        2.02864699       0.44191931       0.10411629       0.00000000 NULL
P        5.83367429       5.48948253       3.64307717       0.00000000 NULL
P        7.18441615       5.52102404       0.15088087       0.00000000 NULL
P        5.63287745       6.57877018       5.54801228       0.00000000 NULL
9
Lattice="5.592526066961214 0.4647930262746228 0.05439801274117714 2.5240575960506417 5.691647703020721 -0.10258533144269921 2.1380805861766503 2.5735875193028885 6.09625084796675" Properties=species:S:1:pos:R:3:initial_magmoms:R:1:castep_labels:S:1 n_minim_iter=28 pbc="T T T"
P        2.43459930       2.10779798       1.62444629       0.00000000 NULL
P        4.30910696       3.81743113       4.09218273       0.00000000 NULL
P        8.68669310       5.96260074       5.94351646       0.00000000 NULL
P        4.07536558       6.73041376       3.16675029       0.00000000 NULL
P        4.93467872       4.13090397       1.12974414       0.00000000 NULL
P        2.03887668       0.44559963       0.10403473       0.00000000 NULL
P        5.85381798       5.49183545       3.64216545       0.00000000 NULL
P        7.20972848       5.52613234       0.15024269       0.00000000 NULL
P        5.65797289       6.58268133       5.54607112       0.00000000 NULL
9
Lattice="5.623095635435329 0.48267325374708103 0.05477255885863895 2.5623472285469076 5.68980143830689 -0.10194214528045394 2.1611704445999 2.57610574691142 6.088311502183872" Properties=species:S:1:pos:R:3:initial_magmoms:R:1:castep_labels:S:1 n_minim_iter=29 pbc="T T T"
P        2.45412297       2.11145650       1.61901423       0.00000000 NULL
P        4.35122121       3.82668919       4.08794162       0.00000000 NULL
P        8.75851985       5.98232839       5.93949794       0.00000000 NULL
P        4.12234837       6.73209614       3.15935435       0.00000000 NULL
P        4.97361445       4.13726960       1.13010178       0.00000000 NULL
P        2.06375918       0.45447484       0.10393475       0.00000000 NULL
P        5.90256170       5.49763271       3.64017380       0.00000000 NULL
P        7.27124206       5.53861796       0.14886193       0.00000000 NULL
P        5.71895147       6.59241534       5.54159507       0.00000000 NULL
9
Lattice="5.690460282739535 0.5216312544481392 0.05690632053061192 2.646015626491882 5.687161328166686 -0.1001564245191826 2.2138356695361123 2.5821933195003264 6.072121711077525" Properties=species:S:1:pos:R:3:initial_magmoms:R:1:castep_labels:S:1 n_minim_iter=30 pbc="T T T"
P        2.49692905       2.12002054       1.60804949       0.00000000 NULL
P        4.44541422       3.84799537       4.07997470       0.00000000 NULL
P        8.91823342       6.02696316       5.93359370       0.00000000 NULL
P        4.22652189       6.73748661       3.14420128       0.00000000 NULL
P        5.05867047       4.15158796       1.13174497       0.00000000 NULL
P        2.11897011       0.47383673       0.10436240       0.00000000 NULL
P        6.00954146       5.51109087       3.63751106       0.00000000 NULL
P        7.40735572       5.56690738       0.14712188       0.00000000 NULL
P        5.85435124       6.61546213       5.53359376       0.00000000 NULL
9
Lattice="5.813488273649969 0.5938697274366254 0.06787347796151569 2.800558769569496 5.691165903089362 -0.0936271961133293 2.322218594773281 2.5985734391570348 6.047306179677557" Properties=species:S:1:pos:R:3:initial_magmoms:R:1:castep_labels:S:1 n_minim_iter=31 pbc="T T T"
P        2.57630974       2.13982465       1.59225065       0.00000000 NULL
P        4.62839284       3.89506389       4.07208229       0.00000000 NULL
P        9.22301424       6.12071567       5.93731627       0.00000000 NULL
P        4.42576287       6.75901277       3.12215849       0.00000000 NULL
P        5.21467151       4.18259454       1.14022701       0.00000000 NULL
P        2.22320986       0.51003772       0.10847748       0.00000000 NULL
P        6.20795389       5.54304823       3.64172054       0.00000000 NULL
P        7.66275004       5.62692949       0.15212055       0.00000000 NULL
P        6.11340171       6.67006630       5.52804729       0.00000000 NULL
9
Lattice="6.026672708502453 0.7248449392011134 0.11308599605462649 3.0776131007225156 5.731416330123054 -0.05736027773368385 2.556545936128939 2.6599816333972703 6.026687786278731" Properties=species:S:1:pos:R:3:initial_magmoms:R:1:castep_labels:S:1 n_minim_iter=32 pbc="T T T"
P        2.71665668       2.19359332       1.58117860       0.00000000 NULL
P        4.99194873       4.01984469       4.09226621       0.00000000 NULL
P        9.80661373       6.34663110       6.01255318       0.00000000 NULL
P        4.80137983       6.84753692       3.11551662       0.00000000 NULL
P        5.48727099       4.25626896       1.18384368       0.00000000 NULL
P        2.43089893       0.58060652       0.12963123       0.00000000 NULL
P        6.55514438       5.62912834       3.69601641       0.00000000 NULL
P        8.13216481       5.76210291       0.20119311       0.00000000 NULL
P        6.60900475       6.82517494       5.56598422       0.00000000 NULL
