12
Lattice="3.7922299999999995 0.0 0.0 0.0 7.365849999999999 0.0 0.0 0.0 9.25255" Properties=species:S:1:pos:R:3:initial_magmoms:R:1:castep_labels:S:1 n_minim_iter=1 pbc="T T T"
P        3.69477538       1.01538758       6.05827458       0.00000000 NULL
P        3.69477538       6.35046242       3.19427542       0.00000000 NULL
P        3.69477538       1.01538758       3.19427542       0.00000000 NULL
P        3.69477538       6.35046242       6.05827458       0.00000000 NULL
P        0.96737929       2.66310097       5.64576722       0.00000000 NULL
P        0.96737929       4.70274903       3.60678278       0.00000000 NULL
P        0.96737929       2.66310097       3.60678278       0.00000000 NULL
P        0.96737929       4.70274903       5.64576722       0.00000000 NULL
P        2.72618295       4.68322143       6.64026090       0.00000000 NULL
P        2.72618295       2.68262857       2.61228910       0.00000000 NULL
P        2.72618295       4.68322143       2.61228910       0.00000000 NULL
P        2.72618295       2.68262857       6.64026090       0.00000000 NULL
12
Lattice="3.812713813390748 0.0 0.0 0.0 7.4259839541156145 0.0 0.0 0.0 9.271549745654205" Properties=species:S:1:pos:R:3:initial_magmoms:R:1:castep_labels:S:1 n_minim_iter=2 pbc="T T T"
P        3.71469784       1.02330435       6.07066713       0.00000000 NULL
P        3.71469784       6.40267960       3.20088261       0.00000000 NULL
P        3.71469784       1.02330435       3.20088261       0.00000000 NULL
P        3.71469784       6.40267960       6.07066713       0.00000000 NULL
P        0.97267202       2.68475700       5.65733267       0.00000000 NULL
P        0.97267202       4.74122695       3.61421707       0.00000000 NULL
P        0.97267202       2.68475700       3.61421707       0.00000000 NULL
P        0.97267202       4.74122695       5.65733267       0.00000000 NULL
P        2.74087603       4.72165236       6.65419974       0.00000000 NULL
P        2.74087603       2.70433160       2.61735001       0.00000000 NULL
P        2.74087603       4.72165236       2.61735001       0.00000000 NULL
P        2.74087603       2.70433160       6.65419974       0.00000000 NULL
12
Lattice="4.03963660032831 0.0 0.0 0.0 8.085279855577502 0.0 0.0 0.0 9.474669665787319" Properties=species:S:1:pos:R:3:initial_magmoms:R:1:castep_labels:S:1 n_minim_iter=3 pbc="T T T"
P        3.93538049       1.10978628       6.20305310       0.00000000 NULL
P        3.93538049       6.97549357       3.27161656       0.00000000 NULL
P        3.93538049       1.10978628       3.27161656       0.00000000 NULL
P        3.93538049       6.97549357       6.20305310       0.00000000 NULL
P        1.03133971       2.92214632       5.78107983       0.00000000 NULL
P        1.03133971       5.16313353       3.69358983       0.00000000 NULL
P        1.03133971       2.92214632       3.69358983       0.00000000 NULL
P        1.03133971       5.16313353       5.78107983       0.00000000 NULL
P        2.90363552       5.14314207       6.80326426       0.00000000 NULL
P        2.90363552       2.94213779       2.67140540       0.00000000 NULL
P        2.90363552       5.14314207       2.67140540       0.00000000 NULL
P        2.90363552       2.94213779       6.80326426       0.00000000 NULL
12
Lattice="4.1625788654386975 0.0 0.0 0.0 8.374923010441671 0.0 0.0 0.0 9.551806266245675" Properties=species:S:1:pos:R:3:initial_magmoms:R:1:castep_labels:S:1 n_minim_iter=4 pbc="T T T"
P        4.05496876       1.14841556       6.25227219       0.00000000 NULL
P        4.05496876       7.22650745       3.29953408       0.00000000 NULL
P        4.05496876       1.14841556       3.29953408       0.00000000 NULL
P        4.05496876       7.22650745       6.25227219       0.00000000 NULL
P        1.06341163       3.02622909       5.82925546       0.00000000 NULL
P        1.06341163       5.34869392       3.72255081       0.00000000 NULL
P        1.06341163       3.02622909       3.72255081       0.00000000 NULL
P        1.06341163       5.34869392       5.82925546       0.00000000 NULL
P        2.99150167       5.32863189       6.86003821       0.00000000 NULL
P        2.99150167       3.04629112       2.69176806       0.00000000 NULL
P        2.99150167       5.32863189       2.69176806       0.00000000 NULL
P        2.99150167       3.04629112       6.86003821       0.00000000 NULL
12
Lattice="4.25899393019974 0.0 0.0 0.0 8.708274309603542 0.0 0.0 0.0 9.577245727497706" Properties=species:S:1:pos:R:3:initial_magmoms:R:1:castep_labels:S:1 n_minim_iter=5 pbc="T T T"
P        4.14875848       1.19514459       6.26641798       0.00000000 NULL
P        4.14875848       7.51312972       3.31082774       0.00000000 NULL
P        4.14875848       1.19514459       3.31082774       0.00000000 NULL
P        4.14875848       7.51312972       6.26641798       0.00000000 NULL
P        1.08965332       3.14523235       5.84738722       0.00000000 NULL
P        1.08965332       5.56304196       3.72985850       0.00000000 NULL
P        1.08965332       3.14523235       3.72985850       0.00000000 NULL
P        1.08965332       5.56304196       5.84738722       0.00000000 NULL
P        3.05931409       5.54245364       6.87910734       0.00000000 NULL
P        3.05931409       3.16582067       2.69813839       0.00000000 NULL
P        3.05931409       5.54245364       2.69813839       0.00000000 NULL
P        3.05931409       3.16582067       6.87910734       0.00000000 NULL
12
Lattice="4.293630094654336 0.0 0.0 0.0 9.011911442967769 0.0 0.0 0.0 9.497914808999601" Properties=species:S:1:pos:R:3:initial_magmoms:R:1:castep_labels:S:1 n_minim_iter=6 pbc="T T T"
P        4.18238403       1.24214859       6.21028572       0.00000000 NULL
P        4.18238403       7.76976286       3.28762909       0.00000000 NULL
P        4.18238403       1.24214859       3.28762909       0.00000000 NULL
P        4.18238403       7.76976286       6.21028572       0.00000000 NULL
P        1.10057716       3.25206645       5.80337025       0.00000000 NULL
P        1.10057716       5.75984499       3.69454456       0.00000000 NULL
P        1.10057716       3.25206645       3.69454456       0.00000000 NULL
P        1.10057716       5.75984499       5.80337025       0.00000000 NULL
P        3.08224576       5.73768556       6.82181836       0.00000000 NULL
P        3.08224576       3.27422589       2.67609645       0.00000000 NULL
P        3.08224576       5.73768556       2.67609645       0.00000000 NULL
P        3.08224576       3.27422589       6.82181836       0.00000000 NULL
12
Lattice="4.2874718907897496 0.0 0.0 0.0 9.067406213605455 0.0 0.0 0.0 9.38331021579571" Properties=species:S:1:pos:R:3:initial_magmoms:R:1:castep_labels:S:1 n_minim_iter=7 pbc="T T T"
P        4.17609651       1.25759296       6.13036209       0.00000000 NULL
P        4.17609651       7.80981325       3.25294813       0.00000000 NULL
P        4.17609651       1.25759296       3.25294813       0.00000000 NULL
P        4.17609651       7.80981325       6.13036209       0.00000000 NULL
P        1.09989150       3.26886423       5.73882168       0.00000000 NULL
P        1.09989150       5.79854198       3.64448853       0.00000000 NULL
P        1.09989150       3.26886423       3.64448853       0.00000000 NULL
P        1.09989150       5.79854198       5.73882168       0.00000000 NULL
P        3.07722101       5.77453105       6.73871115       0.00000000 NULL
P        3.07722101       3.29287517       2.64459907       0.00000000 NULL
P        3.07722101       5.77453105       2.64459907       0.00000000 NULL
P        3.07722101       3.29287517       6.73871115       0.00000000 NULL
12
Lattice="4.297746016661551 0.0 0.0 0.0 9.07994763588967 0.0 0.0 0.0 9.318190940657864" Properties=species:S:1:pos:R:3:initial_magmoms:R:1:castep_labels:S:1 n_minim_iter=8 pbc="T T T"
P        4.18581103       1.26539217       6.08366148       0.00000000 NULL
P        4.18581103       7.81455546       3.23452946       0.00000000 NULL
P        4.18581103       1.26539217       3.23452946       0.00000000 NULL
P        4.18581103       7.81455546       6.08366148       0.00000000 NULL
P        1.10284469       3.27100084       5.70378626       0.00000000 NULL
P        1.10284469       5.80894680       3.61440468       0.00000000 NULL
P        1.10284469       3.27100084       3.61440468       0.00000000 NULL
P        1.10284469       5.80894680       5.70378626       0.00000000 NULL
P        3.08457021       5.78352025       6.69154669       0.00000000 NULL
P        3.08457021       3.29642739       2.62664425       0.00000000 NULL
P        3.08457021       5.78352025       2.62664425       0.00000000 NULL
P        3.08457021       3.29642739       6.69154669       0.00000000 NULL
12
Lattice="4.331056478925112 0.0 0.0 0.0 9.096540037346692 0.0 0.0 0.0 9.156388254062266" Properties=species:S:1:pos:R:3:initial_magmoms:R:1:castep_labels:S:1 n_minim_iter=9 pbc="T T T"
P        4.21739659       1.28290916       5.96723780       0.00000000 NULL
P        4.21739659       7.81363088       3.18915045       0.00000000 NULL
P        4.21739659       1.28290916       3.18915045       0.00000000 NULL
P        4.21739659       7.81363088       5.96723780       0.00000000 NULL
P        1.11216092       3.27106815       5.61722453       0.00000000 NULL
P        1.11216092       5.82547189       3.53916372       0.00000000 NULL
P        1.11216092       3.27106815       3.53916372       0.00000000 NULL
P        1.11216092       5.82547189       5.61722453       0.00000000 NULL
P        3.10856661       5.79646557       6.57435145       0.00000000 NULL
P        3.10856661       3.30007447       2.58203681       0.00000000 NULL
P        3.10856661       5.79646557       2.58203681       0.00000000 NULL
P        3.10856661       3.30007447       6.57435145       0.00000000 NULL
12
Lattice="4.374213814766251 0.0 0.0 0.0 9.099317635394478 0.0 0.0 0.0 9.002448564968702" Properties=species:S:1:pos:R:3:initial_magmoms:R:1:castep_labels:S:1 n_minim_iter=10 pbc="T T T"
P        4.25823852       1.29824289       5.85520543       0.00000000 NULL
P        4.25823852       7.80107475       3.14724314       0.00000000 NULL
P        4.25823852       1.29824289       3.14724314       0.00000000 NULL
P        4.25823852       7.80107475       5.85520543       0.00000000 NULL
P        1.12428957       3.26660167       5.53668922       0.00000000 NULL
P        1.12428957       5.83271597       3.46575934       0.00000000 NULL
P        1.12428957       3.26660167       3.46575934       0.00000000 NULL
P        1.12428957       5.83271597       5.53668922       0.00000000 NULL
P        3.13967872       5.80022381       6.46268853       0.00000000 NULL
P        3.13967872       3.29909383       2.53976003       0.00000000 NULL
P        3.13967872       5.80022381       2.53976003       0.00000000 NULL
P        3.13967872       3.29909383       6.46268853       0.00000000 NULL
12
Lattice="4.411407515604325 0.0 0.0 0.0 9.104586754684151 0.0 0.0 0.0 8.856074477900833" Properties=species:S:1:pos:R:3:initial_magmoms:R:1:castep_labels:S:1 n_minim_iter=11 pbc="T T T"
P        4.29290341       1.31337423       5.74780818       0.00000000 NULL
P        4.29290341       7.79121252       3.10826630       0.00000000 NULL
P        4.29290341       1.31337423       3.10826630       0.00000000 NULL
P        4.29290341       7.79121252       5.74780818       0.00000000 NULL
P        1.13559852       3.26365917       5.46150070       0.00000000 NULL
P        1.13559852       5.84092758       3.39457378       0.00000000 NULL
P        1.13559852       3.26365917       3.39457378       0.00000000 NULL
P        1.13559852       5.84092758       5.46150070       0.00000000 NULL
P        3.16616875       5.80500435       6.35625066       0.00000000 NULL
P        3.16616875       3.29958241       2.49982382       0.00000000 NULL
P        3.16616875       5.80500435       2.49982382       0.00000000 NULL
P        3.16616875       3.29958241       6.35625066       0.00000000 NULL
12
Lattice="4.4960509356864415 0.0 0.0 0.0 9.122354833420426 0.0 0.0 0.0 8.626957218736232" Properties=species:S:1:pos:R:3:initial_magmoms:R:1:castep_labels:S:1 n_minim_iter=12 pbc="T T T"
P        4.37134511       1.34343086       5.57461142       0.00000000 NULL
P        4.37134511       7.77892397       3.05234580       0.00000000 NULL
P        4.37134511       1.34343086       3.05234580       0.00000000 NULL
P        4.37134511       7.77892397       5.57461142       0.00000000 NULL
P        1.16214520       3.26164093       5.35075473       0.00000000 NULL
P        1.16214520       5.86071390       3.27620249       0.00000000 NULL
P        1.16214520       3.26164093       3.27620249       0.00000000 NULL
P        1.16214520       5.86071390       5.35075473       0.00000000 NULL
P        3.22608971       5.81796139       6.18916222       0.00000000 NULL
P        3.22608971       3.30439344       2.43779500       0.00000000 NULL
P        3.22608971       5.81796139       2.43779500       0.00000000 NULL
P        3.22608971       3.30439344       6.18916222       0.00000000 NULL
12
Lattice="4.584190505996302 0.0 0.0 0.0 8.931421283306598 0.0 0.0 0.0 8.224471514898694" Properties=species:S:1:pos:R:3:initial_magmoms:R:1:castep_labels:S:1 n_minim_iter=13 pbc="T T T"
P        4.44170564       1.37959759       5.25570469       0.00000000 NULL
P        4.44170564       7.55182370       2.96876683       0.00000000 NULL
P        4.44170564       1.37959759       2.96876683       0.00000000 NULL
P        4.44170564       7.55182370       5.25570469       0.00000000 NULL
P        1.20652511       3.17803723       5.17674938       0.00000000 NULL
P        1.20652511       5.75338405       3.04772214       0.00000000 NULL
P        1.20652511       3.17803723       3.04772214       0.00000000 NULL
P        1.20652511       5.75338405       5.17674938       0.00000000 NULL
P        3.28307010       5.69395706       5.89249278       0.00000000 NULL
P        3.28307010       3.23746422       2.33197874       0.00000000 NULL
P        3.28307010       5.69395706       2.33197874       0.00000000 NULL
P        3.28307010       3.23746422       5.89249278       0.00000000 NULL
12
Lattice="4.90903233094408 0.0 0.0 0.0 9.442618083943431 0.0 0.0 0.0 8.496693325443596" Properties=species:S:1:pos:R:3:initial_magmoms:R:1:castep_labels:S:1 n_minim_iter=14 pbc="T T T"
P        4.75006461       1.45951641       5.42541507       0.00000000 NULL
P        4.75006461       7.98310167       3.07127825       0.00000000 NULL
P        4.75006461       1.45951641       3.07127825       0.00000000 NULL
P        4.75006461       7.98310167       5.42541507       0.00000000 NULL
P        1.30227203       3.36365993       5.35646153       0.00000000 NULL
P        1.30227203       6.07895816       3.14023179       0.00000000 NULL
P        1.30227203       3.36365993       3.14023179       0.00000000 NULL
P        1.30227203       6.07895816       5.35646153       0.00000000 NULL
P        3.51184804       6.01421639       6.08963661       0.00000000 NULL
P        3.51184804       3.42840169       2.40705671       0.00000000 NULL
P        3.51184804       6.01421639       2.40705671       0.00000000 NULL
P        3.51184804       3.42840169       6.08963661       0.00000000 NULL
12
Lattice="4.701731378769938 0.0 0.0 0.0 9.048125646225792 0.0 0.0 0.0 8.236718892608511" Properties=species:S:1:pos:R:3:initial_magmoms:R:1:castep_labels:S:1 n_minim_iter=15 pbc="T T T"
P        4.54802587       1.40367002       5.25729867       0.00000000 NULL
P        4.54802587       7.64445563       2.97942023       0.00000000 NULL
P        4.54802587       1.40367002       2.97942023       0.00000000 NULL
P        4.54802587       7.64445563       5.25729867       0.00000000 NULL
P        1.24974280       3.22269482       5.19265643       0.00000000 NULL
P        1.24974280       5.82543083       3.04406246       0.00000000 NULL
P        1.24974280       3.22269482       3.04406246       0.00000000 NULL
P        1.24974280       5.82543083       5.19265643       0.00000000 NULL
P        3.36253508       5.76196564       5.90115233       0.00000000 NULL
P        3.36253508       3.28616001       2.33556657       0.00000000 NULL
P        3.36253508       5.76196564       2.33556657       0.00000000 NULL
P        3.36253508       3.28616001       5.90115233       0.00000000 NULL
12
Lattice="4.683524073544394 0.0 0.0 0.0 9.039457792635316 0.0 0.0 0.0 8.240495129405872" Properties=species:S:1:pos:R:3:initial_magmoms:R:1:castep_labels:S:1 n_minim_iter=16 pbc="T T T"
P        4.52897739       1.40408553       5.25873696       0.00000000 NULL
P        4.52897739       7.63537227       2.98175817       0.00000000 NULL
P        4.52897739       1.40408553       2.98175817       0.00000000 NULL
P        4.52897739       7.63537227       5.25873696       0.00000000 NULL
P        1.24764767       3.21989210       5.19685487       0.00000000 NULL
P        1.24764767       5.81956570       3.04364026       0.00000000 NULL
P        1.24764767       3.21989210       3.04364026       0.00000000 NULL
P        1.24764767       5.81956570       5.19685487       0.00000000 NULL
P        3.34820569       5.75521072       5.90366956       0.00000000 NULL
P        3.34820569       3.28424708       2.33682557       0.00000000 NULL
P        3.34820569       5.75521072       2.33682557       0.00000000 NULL
P        3.34820569       3.28424708       5.90366956       0.00000000 NULL
