12
Lattice="6.856599999999999 -1.107196869858776e-15 -1.452426073475511e-16 2.3985303058454535 6.4233959812501755 -4.756346654251844e-16 2.398530305845455 1.664666992072894 6.203942273864569" Properties=species:S:1:pos:R:3:initial_magmoms:R:1:castep_labels:S:1 n_minim_iter=1 pbc="T T T"
P        8.78741464       3.05344192       3.76340754       0.00000000 NULL
P        5.93447873       5.49145350       5.94401384       0.00000000 NULL
P        7.22046020       6.68389349       1.97380905       0.00000000 NULL
P        9.59766712       4.25305409       5.20792416       0.00000000 NULL
P        7.34173585       6.97458156       5.89748117       0.00000000 NULL
P        9.10216070       6.84615369       2.75808041       0.00000000 NULL
P        6.57424735       1.09537524       0.79509848       0.00000000 NULL
P        3.32592836       2.26474775       5.37232490       0.00000000 NULL
P        3.28511385       5.79094600       0.85189681       0.00000000 NULL
P        6.92033026       5.31441259       0.10964227       0.00000000 NULL
P        7.39946888       1.30424982       4.43765323       0.00000000 NULL
P        3.81027964       5.96426958       5.10443248       0.00000000 NULL
12
Lattice="6.874900577362038 -0.0001338558337179901 -0.00010267401083962964 2.4048066936167922 6.440587141935597 -0.00010267401084091551 2.404806693616793 1.6690230327395201 6.22057271154297" Properties=species:S:1:pos:R:3:initial_magmoms:R:1:castep_labels:S:1 n_minim_iter=2 pbc="T T T"
P        8.81067440       3.06131133       3.77311490       0.00000000 NULL
P        5.94998752       5.50576287       5.95988508       0.00000000 NULL
P        7.23929069       6.70169053       1.97889387       0.00000000 NULL
P        9.62298610       4.26440281       5.22186794       0.00000000 NULL
P        7.36122447       6.99316713       5.91294219       0.00000000 NULL
P        9.12638941       6.86413309       2.76542778       0.00000000 NULL
P        6.59154832       1.09848643       0.79711173       0.00000000 NULL
P        3.33489510       2.27061056       5.38640614       0.00000000 NULL
P        3.29374292       5.80619163       0.85437996       0.00000000 NULL
P        6.93875827       5.32850328       0.11016452       0.00000000 NULL
P        7.41911568       1.30795082       4.44943109       0.00000000 NULL
P        3.82061952       5.98007944       5.11790641       0.00000000 NULL
12
Lattice="7.2739905971101235 -0.003619357869954083 -0.0027762255768407286 2.5411484296600273 6.815681694814853 -0.0027762255768424495 2.541148429660028 1.7636491406856893 6.583545122578057" Properties=species:S:1:pos:R:3:initial_magmoms:R:1:castep_labels:S:1 n_minim_iter=3 pbc="T T T"
P        9.31742830       3.23213761       3.98427880       0.00000000 NULL
P        6.28729018       5.81725721       6.30596241       0.00000000 NULL
P        7.64909761       7.08959662       2.08915934       0.00000000 NULL
P       10.17428400       4.51128117       5.52567349       0.00000000 NULL
P        7.78535628       7.39805796       6.24961969       0.00000000 NULL
P        9.65406597       7.25557415       2.92513832       0.00000000 NULL
P        6.96848596       1.16601010       0.84063233       0.00000000 NULL
P        3.53001041       2.39803694       5.69337196       0.00000000 NULL
P        3.48137237       6.13848871       0.90831804       0.00000000 NULL
P        7.34029031       5.63545716       0.12122197       0.00000000 NULL
P        7.84713731       1.38828834       4.70616889       0.00000000 NULL
P        4.04560896       6.32467918       5.41150768       0.00000000 NULL
12
Lattice="7.397055354189274 -0.024466923810466706 -0.01876733445817766 2.5646677217515483 6.938263905351733 -0.018767334458180407 2.5646677217515483 1.779972382099925 6.706083547951878" Properties=species:S:1:pos:R:3:initial_magmoms:R:1:castep_labels:S:1 n_minim_iter=4 pbc="T T T"
P        9.45805026       3.25995723       4.03672076       0.00000000 NULL
P        6.36254359       5.89952612       6.41020913       0.00000000 NULL
P        7.75249336       7.20109382       2.10243782       0.00000000 NULL
P       10.31870002       4.56133237       5.60747842       0.00000000 NULL
P        7.88276387       7.50759235       6.34217850       0.00000000 NULL
P        9.79075439       7.35868963       2.95227922       0.00000000 NULL
P        7.07767408       1.16971603       0.84118996       0.00000000 NULL
P        3.57167766       2.42474859       5.79077020       0.00000000 NULL
P        3.52097212       6.24025389       0.91175284       0.00000000 NULL
P        7.44948060       5.72005947       0.10340458       0.00000000 NULL
P        7.96459061       1.38991949       4.78099929       0.00000000 NULL
P        4.08822379       6.42532083       5.49783707       0.00000000 NULL
12
Lattice="7.4220119885630185 -0.06218815090729503 -0.047701371715298986 2.538059908161099 6.97483915420791 -0.0477013717152995 2.5380599081611006 1.761505594789669 6.748907666241989" Properties=species:S:1:pos:R:3:initial_magmoms:R:1:castep_labels:S:1 n_minim_iter=5 pbc="T T T"
P        9.45963128       3.22326735       4.02573957       0.00000000 NULL
P        6.32872486       5.89263012       6.42688162       0.00000000 NULL
P        7.73420281       7.20961126       2.06984730       0.00000000 NULL
P       10.30491674       4.52697539       5.60435869       0.00000000 NULL
P        7.84575600       7.50434754       6.34212363       0.00000000 NULL
P        9.77476875       7.34994591       2.91990454       0.00000000 NULL
P        7.08819411       1.14182023       0.81949083       0.00000000 NULL
P        3.54922438       2.40887382       5.81533727       0.00000000 NULL
P        3.49824587       6.25996951       0.89043358       0.00000000 NULL
P        7.44659583       5.72051083       0.06366388       0.00000000 NULL
P        7.96400432       1.35079523       4.78853569       0.00000000 NULL
P        4.05136633       6.43600428       5.50857208       0.00000000 NULL
12
Lattice="7.404586574753738 -0.11007355166736177 -0.08443183030052083 2.4871042925620825 6.975265641373037 -0.08443183030052372 2.4871042925620825 1.7261405501447415 6.758838532087674" Properties=species:S:1:pos:R:3:initial_magmoms:R:1:castep_labels:S:1 n_minim_iter=6 pbc="T T T"
P        9.39911230       3.15463750       3.98536593       0.00000000 NULL
P        6.24326073       5.84516458       6.40577379       0.00000000 NULL
P        7.65983968       7.17277837       2.01402527       0.00000000 NULL
P       10.21878097       4.45225866       5.56345764       0.00000000 NULL
P        7.74562848       7.45070512       6.30003058       0.00000000 NULL
P        9.68948954       7.28984472       2.85834027       0.00000000 NULL
P        7.05487865       1.09780766       0.78667184       0.00000000 NULL
P        3.49633835       2.37307768       5.80856845       0.00000000 NULL
P        3.44621111       6.24383725       0.85642995       0.00000000 NULL
P        7.39343619       5.68265967       0.01180749       0.00000000 NULL
P        7.90994867       1.29123569       4.76666355       0.00000000 NULL
P        3.97666041       6.40715506       5.48545304       0.00000000 NULL
12
Lattice="7.3360140340191045 -0.2621640634345766 -0.2010927364431267 2.3206353576420558 6.964228847499434 -0.20109273644312828 2.3206353576420566 1.6106050739026683 6.778412279060076" Properties=species:S:1:pos:R:3:initial_magmoms:R:1:castep_labels:S:1 n_minim_iter=7 pbc="T T T"
P        9.19192794       2.92804485       3.84875216       0.00000000 NULL
P        5.95850848       5.68345942       6.33027209       0.00000000 NULL
P        7.40874101       7.04538276       1.83057849       0.00000000 NULL
P        9.92471008       4.20654359       5.42760688       0.00000000 NULL
P        7.41256791       7.27037587       6.15217582       0.00000000 NULL
P        9.40404456       7.08252790       2.65622665       0.00000000 NULL
P        6.93503700       0.95572058       0.68354783       0.00000000 NULL
P        3.32130621       2.25726246       5.77486527       0.00000000 NULL
P        3.27648459       6.17929009       0.74592254       0.00000000 NULL
P        7.21290777       5.54839746      -0.15035394       0.00000000 NULL
P        7.72101797       1.10295695       4.69070640       0.00000000 NULL
P        3.73418674       6.30499247       5.39780311       0.00000000 NULL
12
Lattice="7.295764832242217 -0.30588246463730207 -0.23462690133056002 2.2655994020897086 6.941815894908595 -0.23462690133056163 2.2655994020897094 1.5724081253955327 6.765455667493777" Properties=species:S:1:pos:R:3:initial_magmoms:R:1:castep_labels:S:1 n_minim_iter=8 pbc="T T T"
P        9.11307830       2.84392965       3.79334573       0.00000000 NULL
P        5.85212507       5.61842817       6.30170619       0.00000000 NULL
P        7.31060412       6.99786021       1.76369602       0.00000000 NULL
P        9.80376485       4.12339055       5.38760582       0.00000000 NULL
P        7.29236027       7.20991634       6.08120378       0.00000000 NULL
P        9.30535466       6.99027727       2.58628106       0.00000000 NULL
P        6.87503889       0.91053969       0.66018844       0.00000000 NULL
P        3.25799173       2.22423054       5.74189684       0.00000000 NULL
P        3.22339140       6.13507089       0.70833898       0.00000000 NULL
P        7.14624793       5.48215826      -0.18553683       0.00000000 NULL
P        7.63564530       1.05879721       4.66188930       0.00000000 NULL
P        3.66295254       6.26043622       5.34294484       0.00000000 NULL
12
Lattice="7.274637258430343 -0.3284189874397835 -0.25191352323018956 2.2370960423957524 6.9299067504657765 -0.25191352323019084 2.2370960423957533 1.5526257603655502 6.7584333422463105" Properties=species:S:1:pos:R:3:initial_magmoms:R:1:castep_labels:S:1 n_minim_iter=9 pbc="T T T"
P        9.07142394       2.80026382       3.76421264       0.00000000 NULL
P        5.79664683       5.58413601       6.28631984       0.00000000 NULL
P        7.25907154       6.97263915       1.72907207       0.00000000 NULL
P        9.74127185       4.08101200       5.36665040       0.00000000 NULL
P        7.23079833       7.17834650       6.04440813       0.00000000 NULL
P        9.25424424       6.94265454       2.55078110       0.00000000 NULL
P        6.84417862       0.88717580       0.64823304       0.00000000 NULL
P        3.22530866       2.20730933       5.72496616       0.00000000 NULL
P        3.19610630       6.11231776       0.68887164       0.00000000 NULL
P        7.11091093       5.44746811      -0.20326267       0.00000000 NULL
P        7.59078554       1.03624262       4.64623018       0.00000000 NULL
P        3.62613042       6.23646561       5.31403364       0.00000000 NULL
12
Lattice="7.253432956303742 -0.348036384577648 -0.26696103210941013 2.2113005357010507 6.916904576282033 -0.2669610321094136 2.2113005357010502 1.5347227434915032 6.749775048893565" Properties=species:S:1:pos:R:3:initial_magmoms:R:1:castep_labels:S:1 n_minim_iter=10 pbc="T T T"
P        9.03141608       2.76091078       3.73718647       0.00000000 NULL
P        5.74578485       5.55188756       6.27042011       0.00000000 NULL
P        7.21106837       6.94785773       1.69806753       0.00000000 NULL
P        9.68291846       4.04260159       5.34637790       0.00000000 NULL
P        7.17440192       7.14808154       6.00984039       0.00000000 NULL
P        9.20616321       6.89831942       2.51893674       0.00000000 NULL
P        6.81467939       0.86639615       0.63773342       0.00000000 NULL
P        3.19552265       2.19189032       5.70801657       0.00000000 NULL
P        3.17124193       6.09011353       0.67152296       0.00000000 NULL
P        7.07716190       5.41482253      -0.21832094       0.00000000 NULL
P        7.54839667       1.01646466       4.63062577       0.00000000 NULL
P        3.59277385       6.21289602       5.28640584       0.00000000 NULL
12
Lattice="7.192331533447022 -0.4117639248694511 -0.3158431912283189 2.1302252446446297 6.881956322436155 -0.3158431912283211 2.13022524464463 1.4784535520764903 6.7286889391408655" Properties=species:S:1:pos:R:3:initial_magmoms:R:1:castep_labels:S:1 n_minim_iter=11 pbc="T T T"
P        8.91134761       2.63584353       3.65277292       0.00000000 NULL
P        5.58661786       5.45254555       6.22591241       0.00000000 NULL
P        7.06232410       6.87523356       1.59914951       0.00000000 NULL
P        9.50353487       3.92350223       5.28757224       0.00000000 NULL
P        7.00007655       7.05853078       5.90301080       0.00000000 NULL
P        9.06128898       6.76093473       2.41914626       0.00000000 NULL
P        6.72595616       0.80050192       0.60580524       0.00000000 NULL
P        3.10275509       2.14548620       5.65827619       0.00000000 NULL
P        3.09531832       6.02375695       0.61615441       0.00000000 NULL
P        6.97528617       5.31314498      -0.26483726       0.00000000 NULL
P        7.41750567       0.95602157       4.58485528       0.00000000 NULL
P        3.49036217       6.14239070       5.20025711       0.00000000 NULL
12
Lattice="6.994973547858317 -0.5516666241393315 -0.4231554454838718 1.9301232194730702 6.7460073641434555 -0.42315544548387474 1.9301232194730698 1.339575491816743 6.625195347296884" Properties=species:S:1:pos:R:3:initial_magmoms:R:1:castep_labels:S:1 n_minim_iter=12 pbc="T T T"
P        8.56136892       2.33699788       3.43563111       0.00000000 NULL
P        5.18422624       5.18494570       6.06648946       0.00000000 NULL
P        6.67086940       6.64782303       1.36678764       0.00000000 NULL
P        9.02581145       3.62485822       5.10083916       0.00000000 NULL
P        6.55318701       6.78926821       5.62005397       0.00000000 NULL
P        8.65271064       6.40355821       2.17909851       0.00000000 NULL
P        6.47576938       0.64569205       0.52828737       0.00000000 NULL
P        2.87020752       2.02391010       5.50429756       0.00000000 NULL
P        2.90007521       5.82960200       0.48672286       0.00000000 NULL
P        6.68054204       5.04549621      -0.36932620       0.00000000 NULL
P        7.06366167       0.80780767       4.43567428       0.00000000 NULL
P        3.22773315       5.92583562       4.96883151       0.00000000 NULL
12
Lattice="7.131678344593285 -0.5795888916300834 -0.4445731985650977 1.9517862619629003 6.883842653754854 -0.4445731985650991 1.951786261962901 1.3546104287082243 6.763872086088851" Properties=species:S:1:pos:R:3:initial_magmoms:R:1:castep_labels:S:1 n_minim_iter=13 pbc="T T T"
P        8.71594432       2.35638712       3.48434947       0.00000000 NULL
P        5.25646299       5.26777016       6.18717474       0.00000000 NULL
P        6.77373034       6.77441441       1.37288875       0.00000000 NULL
P        9.17596881       3.67665612       5.19712863       0.00000000 NULL
P        6.65423933       6.91402784       5.71346372       0.00000000 NULL
P        8.80493734       6.50700016       2.20417266       0.00000000 NULL
P        6.59501665       0.64553752       0.53298447       0.00000000 NULL
P        2.91177704       2.05741196       5.61102898       0.00000000 NULL
P        2.94600199       5.93974219       0.48535632       0.00000000 NULL
P        6.79910230       5.12857688      -0.38514507       0.00000000 NULL
P        7.18296722       0.81378187       4.51897893       0.00000000 NULL
P        3.27506458       6.03471797       5.05317332       0.00000000 NULL
12
Lattice="7.021017326587573 -0.5726460516451143 -0.4392476986740243 1.919579746356842 6.777744565715369 -0.43924769867402563 1.919579746356843 1.3322579392156275 6.6600186728170305" Properties=species:S:1:pos:R:3:initial_magmoms:R:1:castep_labels:S:1 n_minim_iter=14 pbc="T T T"
P        8.57951597       2.31565147       3.43039653       0.00000000 NULL
P        5.17057658       5.18623095       6.09147787       0.00000000 NULL
P        6.66729862       6.66852729       1.34752710       0.00000000 NULL
P        9.03034939       3.61699265       5.11583101       0.00000000 NULL
P        6.54740582       6.80556268       5.62293221       0.00000000 NULL
P        8.66595328       6.40345733       2.16761641       0.00000000 NULL
P        6.49129789       0.63241452       0.52613742       0.00000000 NULL
P        2.86320095       2.02680735       5.52339110       0.00000000 NULL
P        2.90033843       5.84607949       0.47445613       0.00000000 NULL
P        6.69168588       5.04723243      -0.37923984       0.00000000 NULL
P        7.06918646       0.80078086       4.44773996       0.00000000 NULL
P        3.22308295       5.93946743       4.97307760       0.00000000 NULL
