2
Lattice="2.00189 -7.991780619984314e-16 -4.2132744889373297e-16 -0.7595409804287647 4.169208630897392 -1.308308602755617e-15 -0.2615725456882919 -2.115469173914639 5.113866099778041" Properties=species:S:1:pos:R:3:initial_magmoms:R:1:castep_labels:S:1 n_minim_iter=1 pbc="T T T"
P        1.43866126      -0.59527115       1.71594243       0.00000000 NULL
P       -0.06210249       2.02138668       2.83328433       0.00000000 NULL
2
Lattice="2.005257921206121 4.391594563155916e-05 -1.7539752230900873e-05 -0.7607273490281065 4.171398943821952 -0.0009596212321546162 -0.26210382088179546 -2.117779952443726 5.115173513931546" Properties=species:S:1:pos:R:3:initial_magmoms:R:1:castep_labels:S:1 n_minim_iter=2 pbc="T T T"
P        1.44104910      -0.59573629       1.71614637       0.00000000 NULL
P       -0.06218302       2.02158258       2.83346267       0.00000000 NULL
2
Lattice="2.2232011690117774 0.002946102969346028 -0.0011264556193433086 -0.8373734209543332 4.308367565216993 -0.06130418766764487 -0.2964804872271161 -2.262749648415502 5.196871728958773" Properties=species:S:1:pos:R:3:initial_magmoms:R:1:castep_labels:S:1 n_minim_iter=3 pbc="T T T"
P        1.59554805      -0.62445607       1.72878435       0.00000000 NULL
P       -0.06727025       2.03322202       2.84439740       0.00000000 NULL
2
Lattice="2.366094503295454 -0.0001651638289092038 0.002929604857614878 -0.8980684959119367 4.339471765752159 -0.08403496596621579 -0.3015022586706864 -2.3035200259525404 5.211209248169837" Properties=species:S:1:pos:R:3:initial_magmoms:R:1:castep_labels:S:1 n_minim_iter=4 pbc="T T T"
P        1.70033285      -0.63482326       1.73348337       0.00000000 NULL
P       -0.06679652       2.02856203       2.83889895       0.00000000 NULL
2
Lattice="2.513813850613273 -0.018539558440606185 0.01418428582746879 -0.9923821607450032 4.308319949522581 -0.08113694975849507 -0.2726365012411556 -2.2729829681652904 5.174498500659793" Properties=species:S:1:pos:R:3:initial_magmoms:R:1:castep_labels:S:1 n_minim_iter=5 pbc="T T T"
P        1.81626746      -0.64101457       1.73290498       0.00000000 NULL
P       -0.06866870       2.01689969       2.82155470       0.00000000 NULL
2
Lattice="2.510254571956517 -0.03373187980232438 0.019266306487700963 -1.0226718067016076 4.24240254970086 -0.062079366609746355 -0.2431350449809638 -2.2088857535073547 5.121847640207085" Properties=species:S:1:pos:R:3:initial_magmoms:R:1:castep_labels:S:1 n_minim_iter=6 pbc="T T T"
P        1.82069864      -0.63728551       1.72430980       0.00000000 NULL
P       -0.07482140       2.00110321       2.80404854       0.00000000 NULL
