16
Lattice="4.00636 0.0 0.0 0.0 9.03596 0.0 0.0 0.0 10.16296" Properties=species:S:1:pos:R:3:initial_magmoms:R:1:castep_labels:S:1 n_minim_iter=1 pbc="T T T"
P        2.08378997       1.01523890       0.02934047       0.00000000 NULL
P        1.92257003       5.53321890      10.13361953       0.00000000 NULL
P        1.92257003       3.50274110       0.02934047       0.00000000 NULL
P        2.08378997       8.02072110      10.13361953       0.00000000 NULL
P        2.90846151       8.74095217       7.44431535       0.00000000 NULL
P        1.09789849       4.22297217       2.71864465       0.00000000 NULL
P        1.09789849       4.81298783       7.44431535       0.00000000 NULL
P        2.90846151       0.29500783       2.71864465       0.00000000 NULL
P        2.77863061       5.55881958       8.31088250       0.00000000 NULL
P        1.22772939       1.04083958       1.85207750       0.00000000 NULL
P        1.22772939       7.99512042       8.31088250       0.00000000 NULL
P        2.77863061       3.47714042       1.85207750       0.00000000 NULL
P        2.04306772       5.75099457       5.08425042       0.00000000 NULL
P        1.96329228       1.23301457       5.07870958       0.00000000 NULL
P        1.96329228       7.80294543       5.08425042       0.00000000 NULL
P        2.04306772       3.28496543       5.07870958       0.00000000 NULL
16
Lattice="4.005956748110724 0.0 0.0 0.0 9.061704561989716 0.0 0.0 0.0 10.17416889897477" Properties=species:S:1:pos:R:3:initial_magmoms:R:1:castep_labels:S:1 n_minim_iter=2 pbc="T T T"
P        2.08367185       1.01835495       0.02914556       0.00000000 NULL
P        1.92228490       5.54920723      10.14502334       0.00000000 NULL
P        1.92228490       3.51249733       0.02914556       0.00000000 NULL
P        2.08367185       8.04334961      10.14502334       0.00000000 NULL
P        2.90826056       8.76592085       7.45226395       0.00000000 NULL
P        1.09769619       4.23506857       2.72190495       0.00000000 NULL
P        1.09769619       4.82663600       7.45226395       0.00000000 NULL
P        2.90826056       0.29578371       2.72190495       0.00000000 NULL
P        2.77862039       5.57474260       8.31986936       0.00000000 NULL
P        1.22733635       1.04389032       1.85429954       0.00000000 NULL
P        1.22733635       8.01781424       8.31986936       0.00000000 NULL
P        2.77862039       3.48696196       1.85429954       0.00000000 NULL
P        2.04282912       5.76730439       5.08994927       0.00000000 NULL
P        1.96312763       1.23645211       5.08421963       0.00000000 NULL
P        1.96312763       7.82525246       5.08994927       0.00000000 NULL
P        2.04282912       3.29440018       5.08421963       0.00000000 NULL
16
Lattice="3.991728462369214 0.0 0.0 0.0 9.706496994580274 0.0 0.0 0.0 10.44373460667349" Properties=species:S:1:pos:R:3:initial_magmoms:R:1:castep_labels:S:1 n_minim_iter=3 pbc="T T T"
P        2.07848946       1.09648456       0.02422003       0.00000000 NULL
P        1.91323900       5.94973305      10.41951458       0.00000000 NULL
P        1.91323900       3.75676394       0.02422003       0.00000000 NULL
P        2.07848946       8.61001244      10.41951458       0.00000000 NULL
P        2.90016168       9.39135235       7.64305561       0.00000000 NULL
P        1.09156679       4.53810386       2.80067900       0.00000000 NULL
P        1.09156679       5.16839314       7.64305561       0.00000000 NULL
P        2.90016168       0.31514464       2.80067900       0.00000000 NULL
P        2.77531556       5.97369587       8.53580914       0.00000000 NULL
P        1.21641290       1.12044737       1.90792547       0.00000000 NULL
P        1.21641290       8.58604963       8.53580914       0.00000000 NULL
P        2.77531556       3.73280113       1.90792547       0.00000000 NULL
P        2.03474865       6.17582427       5.22715920       0.00000000 NULL
P        1.95697982       1.32257578       5.21657541       0.00000000 NULL
P        1.95697982       8.38392122       5.22715920       0.00000000 NULL
P        2.03474865       3.53067272       5.21657541       0.00000000 NULL
16
Lattice="3.89417002560495 0.0 0.0 0.0 9.764358268952952 0.0 0.0 0.0 10.430505139546261" Properties=species:S:1:pos:R:3:initial_magmoms:R:1:castep_labels:S:1 n_minim_iter=4 pbc="T T T"
P        2.02860645       1.10343315       0.02107505       0.00000000 NULL
P        1.86556358       5.98561228      10.40943009       0.00000000 NULL
P        1.86556358       3.77874599       0.02107505       0.00000000 NULL
P        2.02860645       8.66092512      10.40943009       0.00000000 NULL
P        2.83048968       9.44804151       7.62811371       0.00000000 NULL
P        1.06368035       4.56586237       2.80239143       0.00000000 NULL
P        1.06368035       5.19849590       7.62811371       0.00000000 NULL
P        2.83048968       0.31631676       2.80239143       0.00000000 NULL
P        2.71114794       6.01147236       8.52250663       0.00000000 NULL
P        1.18302208       1.12929323       1.90799851       0.00000000 NULL
P        1.18302208       8.63506504       8.52250663       0.00000000 NULL
P        2.71114794       3.75288591       1.90799851       0.00000000 NULL
P        1.98415164       6.21317879       5.22304182       0.00000000 NULL
P        1.91001839       1.33099966       5.20746332       0.00000000 NULL
P        1.91001839       8.43335861       5.22304182       0.00000000 NULL
P        1.98415164       3.55117948       5.20746332       0.00000000 NULL
16
Lattice="3.7842220606038284 0.0 0.0 0.0 9.81319327212861 0.0 0.0 0.0 10.507348905851163" Properties=species:S:1:pos:R:3:initial_magmoms:R:1:castep_labels:S:1 n_minim_iter=5 pbc="T T T"
P        1.97263255       1.10916678       0.01588611       0.00000000 NULL
P        1.81158951       6.01576342      10.49146280       0.00000000 NULL
P        1.81158951       3.79742986       0.01588611       0.00000000 NULL
P        1.97263255       8.70402649      10.49146280       0.00000000 NULL
P        2.75381907       9.49742207       7.67516623       0.00000000 NULL
P        1.03040299       4.59082544       2.83218267       0.00000000 NULL
P        1.03040299       5.22236784       7.67516623       0.00000000 NULL
P        2.75381907       0.31577120       2.83218267       0.00000000 NULL
P        2.64150891       6.04631699       8.58165100       0.00000000 NULL
P        1.14271315       1.13972036       1.92569791       0.00000000 NULL
P        1.14271315       8.67347292       8.58165100       0.00000000 NULL
P        2.64150891       3.76687628       1.92569791       0.00000000 NULL
P        1.92679603       6.24523356       5.26558530       0.00000000 NULL
P        1.85742603       1.33863692       5.24176361       0.00000000 NULL
P        1.85742603       8.47455635       5.26558530       0.00000000 NULL
P        1.92679603       3.56795972       5.24176361       0.00000000 NULL
16
Lattice="3.658982528958538 0.0 0.0 0.0 9.83431844254254 0.0 0.0 0.0 10.682145077610507" Properties=species:S:1:pos:R:3:initial_magmoms:R:1:castep_labels:S:1 n_minim_iter=6 pbc="T T T"
P        1.90860863       1.11114025       0.00804977       0.00000000 NULL
P        1.75037390       6.02829947      10.67409531       0.00000000 NULL
P        1.75037390       3.80601897       0.00804977       0.00000000 NULL
P        1.90860863       8.72317820      10.67409531       0.00000000 NULL
P        2.66992297       9.52310392       7.78615149       0.00000000 NULL
P        0.98905956       4.60594470       2.89599359       0.00000000 NULL
P        0.98905956       5.22837375       7.78615149       0.00000000 NULL
P        2.66992297       0.31121453       2.89599359       0.00000000 NULL
P        2.56629351       6.06958463       8.72044068       0.00000000 NULL
P        1.09268902       1.15242541       1.96170439       0.00000000 NULL
P        1.09268902       8.68189303       8.72044068       0.00000000 NULL
P        2.56629351       3.76473381       1.96170439       0.00000000 NULL
P        1.86096483       6.26064796       5.36027411       0.00000000 NULL
P        1.79801770       1.34348874       5.32187096       0.00000000 NULL
P        1.79801770       8.49082970       5.36027411       0.00000000 NULL
P        1.86096483       3.57367048       5.32187096       0.00000000 NULL
16
Lattice="3.476473950836814 0.0 0.0 0.0 9.857905927720868 0.0 0.0 0.0 10.803767083180494" Properties=species:S:1:pos:R:3:initial_magmoms:R:1:castep_labels:S:1 n_minim_iter=7 pbc="T T T"
P        1.81333864       1.11168075      -0.00263908       0.00000000 NULL
P        1.66313531       6.04063371      10.80640616       0.00000000 NULL
P        1.66313531       3.81727222      -0.00263908       0.00000000 NULL
P        1.81333864       8.74622518      10.80640616       0.00000000 NULL
P        2.55214874       9.55849528       7.84116727       0.00000000 NULL
P        0.92432522       4.62954232       2.96259981       0.00000000 NULL
P        0.92432522       5.22836361       7.84116727       0.00000000 NULL
P        2.55214874       0.29941064       2.96259981       0.00000000 NULL
P        2.46013344       6.10718390       8.81847403       0.00000000 NULL
P        1.01634051       1.17823094       1.98529306       0.00000000 NULL
P        1.01634051       8.67967499       8.81847403       0.00000000 NULL
P        2.46013344       3.75072203       1.98529306       0.00000000 NULL
P        1.76474847       6.28010732       5.43572451       0.00000000 NULL
P        1.71172548       1.35115436       5.36804257       0.00000000 NULL
P        1.71172548       8.50675157       5.43572451       0.00000000 NULL
P        1.76474847       3.57779861       5.36804257       0.00000000 NULL
16
Lattice="3.3581066275169795 0.0 0.0 0.0 10.039667881319357 0.0 0.0 0.0 10.733329146064767" Properties=species:S:1:pos:R:3:initial_magmoms:R:1:castep_labels:S:1 n_minim_iter=8 pbc="T T T"
P        1.74897845       1.12533276      -0.01526027       0.00000000 NULL
P        1.60912818       6.14516670      10.74858942       0.00000000 NULL
P        1.60912818       3.89450118      -0.01526027       0.00000000 NULL
P        1.74897845       8.91433512      10.74858942       0.00000000 NULL
P        2.49026407       9.75730900       7.73622332       0.00000000 NULL
P        0.86784255       4.73747506       2.99710582       0.00000000 NULL
P        0.86784255       5.30219282       7.73622332       0.00000000 NULL
P        2.49026407       0.28235888       2.99710582       0.00000000 NULL
P        2.40855743       6.26130315       8.76307430       0.00000000 NULL
P        0.94954920       1.24146921       1.97025485       0.00000000 NULL
P        0.94954920       8.79819868       8.76307430       0.00000000 NULL
P        2.40855743       3.77836474       1.97025485       0.00000000 NULL
P        1.69951450       6.40502103       5.42582023       0.00000000 NULL
P        1.65859213       1.38518709       5.30750892       0.00000000 NULL
P        1.65859213       8.65448079       5.42582023       0.00000000 NULL
P        1.69951450       3.63464685       5.30750892       0.00000000 NULL
16
Lattice="3.2706709751277425 0.0 0.0 0.0 9.65858808660709 0.0 0.0 0.0 10.42897385036018" Properties=species:S:1:pos:R:3:initial_magmoms:R:1:castep_labels:S:1 n_minim_iter=9 pbc="T T T"
P        1.70251047       1.07782284      -0.01865749       0.00000000 NULL
P        1.56816050       5.90711688      10.44763135       0.00000000 NULL
P        1.56816050       3.75147120      -0.01865749       0.00000000 NULL
P        1.70251047       8.58076525      10.44763135       0.00000000 NULL
P        2.42878603       9.38854017       7.50621536       0.00000000 NULL
P        0.84188494       4.55924612       2.92275849       0.00000000 NULL
P        0.84188494       5.09934196       7.50621536       0.00000000 NULL
P        2.42878603       0.27004792       2.92275849       0.00000000 NULL
P        2.35115731       6.03237688       8.50996665       0.00000000 NULL
P        0.91951367       1.20308283       1.91900720       0.00000000 NULL
P        0.91951367       8.45550525       8.50996665       0.00000000 NULL
P        2.35115731       3.62621121       1.91900720       0.00000000 NULL
P        1.65361965       6.16532690       5.28024635       0.00000000 NULL
P        1.61705132       1.33603285       5.14872750       0.00000000 NULL
P        1.61705132       8.32255523       5.28024635       0.00000000 NULL
P        1.65361965       3.49326119       5.14872750       0.00000000 NULL
16
Lattice="3.3153424898857646 0.0 0.0 0.0 9.92818849851724 0.0 0.0 0.0 10.586947038174795" Properties=species:S:1:pos:R:3:initial_magmoms:R:1:castep_labels:S:1 n_minim_iter=10 pbc="T T T"
P        1.72588207       1.10834438      -0.02178608       0.00000000 NULL
P        1.58946042       6.07243863      10.60873312       0.00000000 NULL
P        1.58946042       3.85574987      -0.02178608       0.00000000 NULL
P        1.72588207       8.81984412      10.60873312       0.00000000 NULL
P        2.46350956       9.65253078       7.61491044       0.00000000 NULL
P        0.85183293       4.68843653       2.97203660       0.00000000 NULL
P        0.85183293       5.23975197       7.61491044       0.00000000 NULL
P        2.46350956       0.27565772       2.97203660       0.00000000 NULL
P        2.38591317       6.20460982       8.63715983       0.00000000 NULL
P        0.92942932       1.24051557       1.94978721       0.00000000 NULL
P        0.92942932       8.68767292       8.63715983       0.00000000 NULL
P        2.38591317       3.72357867       1.94978721       0.00000000 NULL
P        1.67572893       6.33780679       5.36305078       0.00000000 NULL
P        1.63961356       1.37371255       5.22389626       0.00000000 NULL
P        1.63961356       8.55447595       5.36305078       0.00000000 NULL
P        1.67572893       3.59038170       5.22389626       0.00000000 NULL
16
Lattice="3.307340705473116 0.0 0.0 0.0 9.914804225183454 0.0 0.0 0.0 10.551485976599624" Properties=species:S:1:pos:R:3:initial_magmoms:R:1:castep_labels:S:1 n_minim_iter=11 pbc="T T T"
P        1.72153752       1.10595623      -0.02315409       0.00000000 NULL
P        1.58580319       6.06335834      10.57464007       0.00000000 NULL
P        1.58580319       3.85144588      -0.02315409       0.00000000 NULL
P        1.72153752       8.80884800      10.57464007       0.00000000 NULL
P        2.45845290       9.64009961       7.58609185       0.00000000 NULL
P        0.84888780       4.68269750       2.96539413       0.00000000 NULL
P        0.84888780       5.23210672       7.58609185       0.00000000 NULL
P        2.45845290       0.27470461       2.96539413       0.00000000 NULL
P        2.38173489       6.19893623       8.60671369       0.00000000 NULL
P        0.92560582       1.24153412       1.94477229       0.00000000 NULL
P        0.92560582       8.67327010       8.60671369       0.00000000 NULL
P        2.38173489       3.71586799       1.94477229       0.00000000 NULL
P        1.67120739       6.33007844       5.34759347       0.00000000 NULL
P        1.63613331       1.37267633       5.20389250       0.00000000 NULL
P        1.63613331       8.54212790       5.34759347       0.00000000 NULL
P        1.67120739       3.58472578       5.20389250       0.00000000 NULL
16
Lattice="3.3012519414774784 0.0 0.0 0.0 9.917114419008648 0.0 0.0 0.0 10.52141185497297" Properties=species:S:1:pos:R:3:initial_magmoms:R:1:castep_labels:S:1 n_minim_iter=12 pbc="T T T"
P        1.71815701       1.10510330      -0.02514819       0.00000000 NULL
P        1.58309493       6.06366050      10.54656005       0.00000000 NULL
P        1.58309493       3.85345391      -0.02514819       0.00000000 NULL
P        1.71815701       8.81201112      10.54656005       0.00000000 NULL
P        2.45510135       9.64316780       7.55994899       0.00000000 NULL
P        0.84615060       4.68461059       2.96146287       0.00000000 NULL
P        0.84615060       5.23250383       7.55994899       0.00000000 NULL
P        2.45510135       0.27394662       2.96146287       0.00000000 NULL
P        2.37950152       6.20406757       8.58007390       0.00000000 NULL
P        0.92175042       1.24551036       1.94133796       0.00000000 NULL
P        0.92175042       8.67160406       8.58007390       0.00000000 NULL
P        2.37950152       3.71304685       1.94133796       0.00000000 NULL
P        1.66748602       6.33261227       5.33574519       0.00000000 NULL
P        1.63376592       1.37405506       5.18566667       0.00000000 NULL
P        1.63376592       8.54305936       5.33574519       0.00000000 NULL
P        1.66748602       3.58450215       5.18566667       0.00000000 NULL
16
Lattice="3.2679713741805814 0.0 0.0 0.0 9.953214221157882 0.0 0.0 0.0 10.346320693654167" Properties=species:S:1:pos:R:3:initial_magmoms:R:1:castep_labels:S:1 n_minim_iter=13 pbc="T T T"
P        1.69945213       1.10157515      -0.03876242       0.00000000 NULL
P        1.56851925       6.07818226      10.38508312       0.00000000 NULL
P        1.56851925       3.87503196      -0.03876242       0.00000000 NULL
P        1.69945213       8.85163907      10.38508312       0.00000000 NULL
P        2.43776057       9.68346754       7.40403298       0.00000000 NULL
P        0.83021080       4.70686043       2.94228772       0.00000000 NULL
P        0.83021080       5.24635379       7.40403298       0.00000000 NULL
P        2.43776057       0.26974668       2.94228772       0.00000000 NULL
P        2.36968768       6.25180567       8.42269247       0.00000000 NULL
P        0.89828370       1.27519856       1.92362823       0.00000000 NULL
P        0.89828370       8.67801566       8.42269247       0.00000000 NULL
P        2.36968768       3.70140855       1.92362823       0.00000000 NULL
P        1.64627929       6.36278358       5.26986619       0.00000000 NULL
P        1.62169209       1.38617647       5.07645450       0.00000000 NULL
P        1.62169209       8.56703775       5.26986619       0.00000000 NULL
P        1.64627929       3.59043064       5.07645450       0.00000000 NULL
16
Lattice="3.269558045898234 0.0 0.0 0.0 10.04722754556736 0.0 0.0 0.0 10.200956997123358" Properties=species:S:1:pos:R:3:initial_magmoms:R:1:castep_labels:S:1 n_minim_iter=14 pbc="T T T"
P        1.69646872       1.09110740      -0.07450669       0.00000000 NULL
P        1.57308933       6.11472117      10.27546368       0.00000000 NULL
P        1.57308933       3.93250638      -0.07450669       0.00000000 NULL
P        1.69646872       8.95612015      10.27546368       0.00000000 NULL
P        2.44890840       9.77912370       7.22972572       0.00000000 NULL
P        0.82064965       4.75550993       2.97123128       0.00000000 NULL
P        0.82064965       5.29171762       7.22972572       0.00000000 NULL
P        2.44890840       0.26810384       2.97123128       0.00000000 NULL
P        2.39981535       6.37304752       8.26184900       0.00000000 NULL
P        0.86974270       1.34943375       1.93910800       0.00000000 NULL
P        0.86974270       8.69779380       8.26184900       0.00000000 NULL
P        2.39981535       3.67418003       1.93910800       0.00000000 NULL
P        1.63531236       6.43999254       5.25527900       0.00000000 NULL
P        1.63424568       1.41637877       4.94567800       0.00000000 NULL
P        1.63424568       8.63084877       5.25527900       0.00000000 NULL
P        1.63531236       3.60723500       4.94567800       0.00000000 NULL
16
Lattice="3.135163511306295 0.0 0.0 0.0 9.81035549347842 0.0 0.0 0.0 9.597517567994625" Properties=species:S:1:pos:R:3:initial_magmoms:R:1:castep_labels:S:1 n_minim_iter=15 pbc="T T T"
P        1.62411889       1.06143244      -0.07028781       0.00000000 NULL
P        1.51104462       5.96661019       9.66780537       0.00000000 NULL
P        1.51104462       3.84374531      -0.07028781       0.00000000 NULL
P        1.62411889       8.74892306       9.66780537       0.00000000 NULL
P        2.34618729       9.54298347       6.79484403       0.00000000 NULL
P        0.78897622       4.63780572       2.80267353       0.00000000 NULL
P        0.78897622       5.17254977       6.79484403       0.00000000 NULL
P        2.34618729       0.26737202       2.80267353       0.00000000 NULL
P        2.30112461       6.22842964       7.76813103       0.00000000 NULL
P        0.83403890       1.32325189       1.82938653       0.00000000 NULL
P        0.83403890       8.48710360       7.76813103       0.00000000 NULL
P        2.30112461       3.58192585       1.82938653       0.00000000 NULL
P        1.56594388       6.29020833       4.95442224       0.00000000 NULL
P        1.56921963       1.38503058       4.64309533       0.00000000 NULL
P        1.56921963       8.42532491       4.95442224       0.00000000 NULL
P        1.56594388       3.52014717       4.64309533       0.00000000 NULL
16
Lattice="3.2307622389624617 0.0 0.0 0.0 10.13545910120571 0.0 0.0 0.0 10.036579745533633" Properties=species:S:1:pos:R:3:initial_magmoms:R:1:castep_labels:S:1 n_minim_iter=16 pbc="T T T"
P        1.67388640       1.09726700      -0.07652668       0.00000000 NULL
P        1.55687584       6.16499655      10.11310642       0.00000000 NULL
P        1.55687584       3.97046255      -0.07652668       0.00000000 NULL
P        1.67388640       9.03819210      10.11310642       0.00000000 NULL
P        2.41795167       9.86111023       7.10335351       0.00000000 NULL
P        0.81281057       4.79338068       2.93322623       0.00000000 NULL
P        0.81281057       5.34207843       7.10335351       0.00000000 NULL
P        2.41795167       0.27434887       2.93322623       0.00000000 NULL
P        2.37246451       6.43796119       8.12210831       0.00000000 NULL
P        0.85829773       1.37023164       1.91447144       0.00000000 NULL
P        0.85829773       8.76522747       8.12210831       0.00000000 NULL
P        2.37246451       3.69749791       1.91447144       0.00000000 NULL
P        1.61347664       6.49831696       5.18135411       0.00000000 NULL
P        1.61728559       1.43058741       4.85522564       0.00000000 NULL
P        1.61728559       8.70487169       5.18135411       0.00000000 NULL
P        1.61347664       3.63714214       4.85522564       0.00000000 NULL
16
Lattice="3.228778692923026 0.0 0.0 0.0 10.088384531011865 0.0 0.0 0.0 10.032311114819052" Properties=species:S:1:pos:R:3:initial_magmoms:R:1:castep_labels:S:1 n_minim_iter=17 pbc="T T T"
P        1.67251665       1.09126434      -0.07696281       0.00000000 NULL
P        1.55626205       6.13545660      10.10927393       0.00000000 NULL
P        1.55626205       3.95292793      -0.07696281       0.00000000 NULL
P        1.67251665       8.99712019      10.10927393       0.00000000 NULL
P        2.41623914       9.81462306       7.09913182       0.00000000 NULL
P        0.81253955       4.77043079       2.93317930       0.00000000 NULL
P        0.81253955       5.31795374       7.09913182       0.00000000 NULL
P        2.41623914       0.27376147       2.93317930       0.00000000 NULL
P        2.37119214       6.40924001       8.11776200       0.00000000 NULL
P        0.85758655       1.36504774       1.91454911       0.00000000 NULL
P        0.85758655       8.72333679       8.11776200       0.00000000 NULL
P        2.37119214       3.67914452       1.91454911       0.00000000 NULL
P        1.61215814       6.46865197       5.18043391       0.00000000 NULL
P        1.61662056       1.42445971       4.85187721       0.00000000 NULL
P        1.61662056       8.66392482       5.18043391       0.00000000 NULL
P        1.61215814       3.61973256       4.85187721       0.00000000 NULL
