21
Lattice="5.215299999999998 -9.408796598371712e-17 0.0 -2.60765 4.5165822883569815 0.0 0.0 0.0 19.808399999999995" Properties=species:S:1:pos:R:3:initial_magmoms:R:1:castep_labels:S:1 n_minim_iter=1 pbc="T T T"
P        3.74548895       2.26581442       2.67688935       0.00000000 NULL
P        2.69715837       0.13998650       2.67688935       0.00000000 NULL
P        1.38030268       2.11078137       2.67688935       0.00000000 NULL
P        2.71050354       3.28484797      11.62068700       0.00000000 NULL
P        4.09716002       0.52679338      11.62068700       0.00000000 NULL
P        1.01528644       0.70494094      11.62068700       0.00000000 NULL
P        4.26892462       0.68261954      17.63192036       0.00000000 NULL
P        1.06435355       0.47827535      17.63192036       0.00000000 NULL
P        2.48967183       3.35568740      17.63192036       0.00000000 NULL
P       -1.19187207       3.10149144      18.95575931       0.00000000 NULL
P        0.67425641       3.99802806      18.95575931       0.00000000 NULL
P        0.51761566       1.93364508      18.95575931       0.00000000 NULL
P        2.20784432       2.64741503      19.75921970       0.00000000 NULL
P        3.79645651       1.28082551      19.75921970       0.00000000 NULL
P        1.81864917       0.58834175      19.75921970       0.00000000 NULL
P       -1.73424293       3.74689750       9.77245433       0.00000000 NULL
P        1.50437989       4.14503197       9.77245433       0.00000000 NULL
P        0.22986305       1.14123510       9.77245433       0.00000000 NULL
P        3.77108251       2.23868602      16.44740973       0.00000000 NULL
P        2.66086771       0.13138603      16.44740973       0.00000000 NULL
P        1.39099978       2.14651024      16.44740973       0.00000000 NULL
21
Lattice="5.268198836129385 -1.1839438430548093e-16 0.0 -2.6340994180646935 4.562394024275661 0.0 0.0 0.0 19.923149508758804" Properties=species:S:1:pos:R:3:initial_magmoms:R:1:castep_labels:S:1 n_minim_iter=2 pbc="T T T"
P        3.78334941       2.28875315       2.69240062       0.00000000 NULL
P        2.72454308       0.14154075       2.69240062       0.00000000 NULL
P        1.39440577       2.13210013       2.69240062       0.00000000 NULL
P        2.73796249       3.31769679      11.68840764       0.00000000 NULL
P        4.13832788       0.53240056      11.68840764       0.00000000 NULL
P        1.02600789       0.71229667      11.68840764       0.00000000 NULL
P        4.31193260       0.68983460      17.73400624       0.00000000 NULL
P        1.07554741       0.48323356      17.73400624       0.00000000 NULL
P        2.51481825       3.38932587      17.73400624       0.00000000 NULL
P       -1.20406705       3.13326525      19.06556579       0.00000000 NULL
P        0.68142141       4.03851406      19.06556579       0.00000000 NULL
P        0.52264565       1.95300875      19.06556579       0.00000000 NULL
P        2.23025980       2.67461185      19.87405960       0.00000000 NULL
P        3.83525133       1.29362646      19.87405960       0.00000000 NULL
P        1.83678713       0.59415572      19.87405960       0.00000000 NULL
P       -1.75116638       3.78440254       9.82866356       0.00000000 NULL
P        1.51887251       4.18674733       9.82866356       0.00000000 NULL
P        0.23229388       1.15363818       9.82866356       0.00000000 NULL
P        3.80955097       2.26159589      16.54236874       0.00000000 NULL
P        2.68792343       0.13242816      16.54236874       0.00000000 NULL
P        1.40482386       2.16836997      16.54236874       0.00000000 NULL
21
Lattice="6.075273173411339 -2.891648467217e-16 0.0 -3.03763658670567 5.261340903104324 0.0 0.0 0.0 21.625729257179287" Properties=species:S:1:pos:R:3:initial_magmoms:R:1:castep_labels:S:1 n_minim_iter=3 pbc="T T T"
P        4.36035306       2.63839653       2.92250891       0.00000000 NULL
P        3.14237848       0.16596612       2.92250891       0.00000000 NULL
P        1.61017823       2.45697825       2.92250891       0.00000000 NULL
P        3.15677527       3.81869119      12.69326188       0.00000000 NULL
P        4.76633254       0.61814773      12.69326188       0.00000000 NULL
P        1.18980196       0.82450198      12.69326188       0.00000000 NULL
P        4.96759185       0.80049265      19.24832385       0.00000000 NULL
P        1.24708763       0.55903385      19.24832385       0.00000000 NULL
P        2.89823029       3.90181441      19.24832385       0.00000000 NULL
P       -1.39033039       3.61847907      20.69472498       0.00000000 NULL
P        0.79122341       4.65616281      20.69472498       0.00000000 NULL
P        0.59910699       2.24803993      20.69472498       0.00000000 NULL
P        2.57212552       3.08982959      21.57859032       0.00000000 NULL
P        4.42744474       1.48890007      21.57859032       0.00000000 NULL
P        2.11333950       0.68261125      21.57859032       0.00000000 NULL
P       -2.00897087       4.35633955      10.66260141       0.00000000 NULL
P        1.73954957       4.82299094      10.66260141       0.00000000 NULL
P        0.26942131       1.34335132      10.66260141       0.00000000 NULL
P        4.39650732       2.61139338      17.95118444       0.00000000 NULL
P        3.10091593       0.14815719      17.95118444       0.00000000 NULL
P        1.61548652       2.50179034      17.95118444       0.00000000 NULL
21
Lattice="6.026608958890288 4.46369128808138e-16 0.0 -3.0133044794451447 5.219196457073879 0.0 0.0 0.0 21.457991482832927" Properties=species:S:1:pos:R:3:initial_magmoms:R:1:castep_labels:S:1 n_minim_iter=4 pbc="T T T"
P        4.32008725       2.61362660       2.89912479       0.00000000 NULL
P        3.11672789       0.17107786       2.89912479       0.00000000 NULL
P        1.60309830       2.43449200       2.89912479       0.00000000 NULL
P        3.13064029       3.79106560      12.59399021       0.00000000 NULL
P        4.73114345       0.61244963      12.59399021       0.00000000 NULL
P        1.17812970       0.81568122      12.59399021       0.00000000 NULL
P        4.92416743       0.79523694      19.09782738       0.00000000 NULL
P        1.23991615       0.55712390      19.09782738       0.00000000 NULL
P        2.87582986       3.86683562      19.09782738       0.00000000 NULL
P       -1.37973439       3.59005123      20.53488031       0.00000000 NULL
P        0.78563828       4.61905588      20.53488031       0.00000000 NULL
P        0.59409611       2.22928581      20.53488031       0.00000000 NULL
P        2.55101957       3.06543455      21.41205234       0.00000000 NULL
P        4.39253889       1.47723143      21.41205234       0.00000000 NULL
P        2.09635498       0.67653048      21.41205234       0.00000000 NULL
P       -1.99313524       4.32253655      10.58071569       0.00000000 NULL
P        1.72668961       4.78403394      10.58071569       0.00000000 NULL
P        0.26644564       1.33182243      10.58071569       0.00000000 NULL
P        4.36007194       2.59004513      17.81235665       0.00000000 NULL
P        3.07631340       0.14824083      17.81235665       0.00000000 NULL
P        1.60352811       2.48091049      17.81235665       0.00000000 NULL
21
Lattice="6.01396475407912 1.297327768809333e-15 0.0 -3.0069823770395616 5.208246254496754 0.0 0.0 0.0 21.37144174885523" Properties=species:S:1:pos:R:3:initial_magmoms:R:1:castep_labels:S:1 n_minim_iter=5 pbc="T T T"
P        4.30378046       2.60322397       2.88653104       0.00000000 NULL
P        3.10955024       0.17945106       2.88653104       0.00000000 NULL
P        1.60761644       2.42557122       2.88653104       0.00000000 NULL
P        3.12286425       3.78623417      12.54262909       0.00000000 NULL
P        4.72452523       0.61064940      12.54262909       0.00000000 NULL
P        1.17355766       0.81136269      12.54262909       0.00000000 NULL
P        4.90909890       0.79525354      19.01913717       0.00000000 NULL
P        1.24114270       0.55921513      19.01913717       0.00000000 NULL
P        2.87070554       3.85377758      19.01913717       0.00000000 NULL
P       -1.37768720       3.58344735      20.45282447       0.00000000 NULL
P        0.78521766       4.60963469      20.45282447       0.00000000 NULL
P        0.59246954       2.22341047      20.45282447       0.00000000 NULL
P        2.54500147       3.05973365      21.32721271       0.00000000 NULL
P        4.38428871       1.47434351      21.32721271       0.00000000 NULL
P        2.09165696       0.67416910      21.32721271       0.00000000 NULL
P       -1.98856701       4.31443258      10.53860280       0.00000000 NULL
P        1.72370935       4.77317951      10.53860280       0.00000000 NULL
P        0.26485766       1.32888042      10.53860280       0.00000000 NULL
P        4.34955994       2.58430131      17.74077637       0.00000000 NULL
P        3.07027299       0.14926620      17.74077637       0.00000000 NULL
P        1.60111421       2.47467875      17.74077637       0.00000000 NULL
21
Lattice="6.0195193683559225 4.689813520258448e-16 0.0 -3.009759684177962 5.213056691568689 0.0 0.0 0.0 21.341699860778256" Properties=species:S:1:pos:R:3:initial_magmoms:R:1:castep_labels:S:1 n_minim_iter=6 pbc="T T T"
P        4.30152038       2.60140535       2.88177157       0.00000000 NULL
P        3.11188261       0.18712810       2.88177157       0.00000000 NULL
P        1.61587607       2.42452325       2.88177157       0.00000000 NULL
P        3.12470023       3.79202658      12.52489211       0.00000000 NULL
P        4.73140092       0.61097362      12.52489211       0.00000000 NULL
P        1.17317791       0.81005649      12.52489211       0.00000000 NULL
P        4.90971518       0.79743291      18.99129979       0.00000000 NULL
P        1.24549925       0.56240217      18.99129979       0.00000000 NULL
P        2.87406463       3.85322161      18.99129979       0.00000000 NULL
P       -1.37969395       3.58759915      20.42497255       0.00000000 NULL
P        0.78703929       4.61410713      20.42497255       0.00000000 NULL
P        0.59265466       2.22440711      20.42497255       0.00000000 NULL
P        2.54678397       3.06325662      21.29891401       0.00000000 NULL
P        4.38922575       1.47584877      21.29891401       0.00000000 NULL
P        2.09326934       0.67395131      21.29891401       0.00000000 NULL
P       -1.98984397       4.31909080      10.52421844       0.00000000 NULL
P        1.72560465       4.77676672      10.52421844       0.00000000 NULL
P        0.26423932       1.33025587      10.52421844       0.00000000 NULL
P        4.35253345       2.58653240      17.71620546       0.00000000 NULL
P        3.07349573       0.15038596      17.71620546       0.00000000 NULL
P        1.60324988       2.47613833      17.71620546       0.00000000 NULL
21
Lattice="6.051611298816374 2.446090059467307e-16 0.0 -3.0258056494081877 5.240849118603924 0.0 0.0 0.0 21.158569459509476" Properties=species:S:1:pos:R:3:initial_magmoms:R:1:castep_labels:S:1 n_minim_iter=7 pbc="T T T"
P        4.28414629       2.58805907       2.85239879       0.00000000 NULL
P        3.12505740       0.23664006       2.85239879       0.00000000 NULL
P        1.66821326       2.41614999       2.85239879       0.00000000 NULL
P        3.13462635       3.82631750      12.41586128       0.00000000 NULL
P        4.77218063       0.61302432      12.41586128       0.00000000 NULL
P        1.17060997       0.80150731      12.41586128       0.00000000 NULL
P        4.91123525       0.81071803      18.82009125       0.00000000 NULL
P        1.27229043       0.58223561      18.82009125       0.00000000 NULL
P        2.89389127       3.84789548      18.82009125       0.00000000 NULL
P       -1.39155564       3.61208174      20.25352381       0.00000000 NULL
P        0.79812672       4.63993078      20.25352381       0.00000000 NULL
P        0.59342892       2.22968572      20.25352381       0.00000000 NULL
P        2.55669126       3.08401263      21.12458352       0.00000000 NULL
P        4.41829330       1.48468322      21.12458352       0.00000000 NULL
P        2.10243239       0.67215327      21.12458352       0.00000000 NULL
P       -1.99681339       4.34650476      10.43546779       0.00000000 NULL
P        1.73678459       4.79688786      10.43546779       0.00000000 NULL
P        0.26002880       1.33830562      10.43546779       0.00000000 NULL
P        4.36922806       2.59945821      17.56482813       0.00000000 NULL
P        3.09238846       0.15725752      17.56482813       0.00000000 NULL
P        1.61580043       2.48413339      17.56482813       0.00000000 NULL
21
Lattice="6.086441348555305 9.091675992327787e-16 0.0 -3.043220674277654 5.271012826492914 0.0 0.0 0.0 21.012943356647227" Properties=species:S:1:pos:R:3:initial_magmoms:R:1:castep_labels:S:1 n_minim_iter=8 pbc="T T T"
P        4.26490503       2.57361610       2.82801467       0.00000000 NULL
P        3.13958508       0.29068868       2.82801467       0.00000000 NULL
P        1.72517192       2.40670805       2.82801467       0.00000000 NULL
P        3.14532920       3.85949228      12.33014710       0.00000000 NULL
P        4.81297444       0.61733170      12.33014710       0.00000000 NULL
P        1.17135839       0.79418885      12.33014710       0.00000000 NULL
P        4.91566224       0.82395190      18.68415078       0.00000000 NULL
P        1.29895284       0.60194850      18.68415078       0.00000000 NULL
P        2.91504695       3.84511242      18.68415078       0.00000000 NULL
P       -1.40332140       3.63840848      20.11804096       0.00000000 NULL
P        0.80939420       4.66712057      20.11804096       0.00000000 NULL
P        0.59392720       2.23649661      20.11804096       0.00000000 NULL
P        2.56734654       3.10633977      20.98651264       0.00000000 NULL
P        4.44971656       1.49445562      20.98651264       0.00000000 NULL
P        2.11259893       0.67021744      20.98651264       0.00000000 NULL
P       -2.00395919       4.37656047      10.36390527       0.00000000 NULL
P        1.74897146       4.81821216      10.36390527       0.00000000 NULL
P        0.25498773       1.34725303      10.36390527       0.00000000 NULL
P        4.38855731       2.61435866      17.44386221       0.00000000 NULL
P        3.11304304       0.16323138      17.44386221       0.00000000 NULL
P        1.62806168       2.49342279      17.44386221       0.00000000 NULL
21
Lattice="6.180516825077899 -4.843202178905514e-16 0.0 -3.0902584125389496 5.3524845790346065 0.0 0.0 0.0 20.305259900661127" Properties=species:S:1:pos:R:3:initial_magmoms:R:1:castep_labels:S:1 n_minim_iter=9 pbc="T T T"
P        4.17592994       2.51004088       2.71654873       0.00000000 NULL
P        3.17605261       0.48100273       2.71654873       0.00000000 NULL
P        1.91879270       2.36144098       2.71654873       0.00000000 NULL
P        3.16687353       3.95221551      11.91569705       0.00000000 NULL
P        4.92954068       0.63378389      11.91569705       0.00000000 NULL
P        1.17436102       0.76648517      11.91569705       0.00000000 NULL
P        4.91120822       0.86539027      18.03853476       0.00000000 NULL
P        1.38410426       0.66655837      18.03853476       0.00000000 NULL
P        2.97546276       3.82053594      18.03853476       0.00000000 NULL
P       -1.43593934       3.71423498      19.45472081       0.00000000 NULL
P        0.84433311       4.73892705      19.45472081       0.00000000 NULL
P        0.59160624       2.25180714      19.45472081       0.00000000 NULL
P        2.59205468       3.17067088      20.30004974       0.00000000 NULL
P        4.54011261       1.52236394      20.30004974       0.00000000 NULL
P        2.13860796       0.65944976      20.30004974       0.00000000 NULL
P       -2.01991763       4.46502339      10.01405470       0.00000000 NULL
P        1.78652409       4.86927287      10.01405470       0.00000000 NULL
P        0.23339355       1.37067290      10.01405470       0.00000000 NULL
P        4.43792969       2.65627544      16.85441057       0.00000000 NULL
P        3.17169558       0.18098701      16.85441057       0.00000000 NULL
P        1.66114998       2.51522213      16.85441057       0.00000000 NULL
21
Lattice="6.721184076859135 1.6407482030905679e-16 0.0 -3.360592038429568 5.820716154071474 0.0 0.0 0.0 20.788999437835894" Properties=species:S:1:pos:R:3:initial_magmoms:R:1:castep_labels:S:1 n_minim_iter=10 pbc="T T T"
P        4.51613787       2.71287486       2.77628656       0.00000000 NULL
P        3.45194165       0.55318860       2.77628656       0.00000000 NULL
P        2.11369660       2.55465269       2.77628656       0.00000000 NULL
P        3.43107882       4.29942291      12.20437362       0.00000000 NULL
P        5.36846209       0.69960328      12.20437362       0.00000000 NULL
P        1.28223521       0.82168997      12.20437362       0.00000000 NULL
P        5.32071780       0.95033037      18.46798446       0.00000000 NULL
P        1.52324338       0.73767419      18.46798446       0.00000000 NULL
P        3.23781493       4.13271160      18.46798446       0.00000000 NULL
P       -1.56263493       4.04760601      19.92464779       0.00000000 NULL
P        0.92605506       5.15019470      19.92464779       0.00000000 NULL
P        0.63657988       2.44363160      19.92464779       0.00000000 NULL
P        2.81290635       3.45594130      20.78760827       0.00000000 NULL
P        4.94707183       1.65669715      20.78760827       0.00000000 NULL
P        2.32179794       0.70807771      20.78760827       0.00000000 NULL
P       -2.18702432       4.86471608      10.24781852       0.00000000 NULL
P        1.94588783       5.28237674      10.24781852       0.00000000 NULL
P        0.24113650       1.49433950      10.24781852       0.00000000 NULL
P        4.82520497       2.89225782      17.25081435       0.00000000 NULL
P        3.45275830       0.19583717      17.25081435       0.00000000 NULL
P        1.80381285       2.73262117      17.25081435       0.00000000 NULL
21
Lattice="6.344634720129754 4.942570724775668e-16 0.0 -3.172317360064878 5.494614845365141 0.0 0.0 0.0 19.837536551035786" Properties=species:S:1:pos:R:3:initial_magmoms:R:1:castep_labels:S:1 n_minim_iter=11 pbc="T T T"
P        4.25528740       2.55509378       2.64831998       0.00000000 NULL
P        3.25744978       0.53188097       2.64831998       0.00000000 NULL
P        2.00421491       2.40764010       2.64831998       0.00000000 NULL
P        3.23738028       4.06547751      11.64302098       0.00000000 NULL
P        5.07443403       0.65822253      11.64302098       0.00000000 NULL
P        1.20513778       0.77091481      11.64302098       0.00000000 NULL
P        5.01763660       0.89859984      17.62307323       0.00000000 NULL
P        1.44170936       0.69991417      17.62307323       0.00000000 NULL
P        3.05760613       3.89610084      17.62307323       0.00000000 NULL
P       -1.47528246       3.82024491      19.01367431       0.00000000 NULL
P        0.87375301       4.86212448      19.01367431       0.00000000 NULL
P        0.60152946       2.30686031      19.01367431       0.00000000 NULL
P        2.65459741       3.26180231      19.83390711       0.00000000 NULL
P        4.66982232       1.56476490      19.83390711       0.00000000 NULL
P        2.19253235       0.66804764      19.83390711       0.00000000 NULL
P       -2.06918759       4.59716448       9.78158791       0.00000000 NULL
P        1.84353766       4.98800163       9.78158791       0.00000000 NULL
P        0.22564993       1.40406359       9.78158791       0.00000000 NULL
P        4.55342372       2.73009938      16.46323583       0.00000000 NULL
P        3.25994092       0.18618455      16.46323583       0.00000000 NULL
P        1.70358745       2.57833092      16.46323583       0.00000000 NULL
21
Lattice="6.3446826750126055 1.2756066314820407e-15 0.0 -3.1723413375063045 5.4946563755119255 0.0 0.0 0.0 19.78418512697297" Properties=species:S:1:pos:R:3:initial_magmoms:R:1:castep_labels:S:1 n_minim_iter=12 pbc="T T T"
P        4.25204120       2.55281130       2.64045545       0.00000000 NULL
P        3.25712017       0.53587503       2.64045545       0.00000000 NULL
P        2.00786264       2.40597005       2.64045545       0.00000000 NULL
P        3.23526145       4.06652368      11.61222283       0.00000000 NULL
P        5.07642343       0.65957594      11.61222283       0.00000000 NULL
P        1.20533914       0.76855676      11.61222283       0.00000000 NULL
P        5.01496432       0.90006215      17.57572326       0.00000000 NULL
P        1.44433587       0.70153881      17.57572326       0.00000000 NULL
P        3.05772383       3.89305542      17.57572326       0.00000000 NULL
P       -1.47493301       3.82106957      18.96343620       0.00000000 NULL
P        0.87426848       4.86145105      18.96343620       0.00000000 NULL
P        0.60066453       2.30679214      18.96343620       0.00000000 NULL
P        2.65372763       3.26263689      19.78064575       0.00000000 NULL
P        4.67100395       1.56514239      19.78064575       0.00000000 NULL
P        2.19229244       0.66687710      19.78064575       0.00000000 NULL
P       -2.06845784       4.59932101       9.75476633       0.00000000 NULL
P        1.84501642       4.98633292       9.75476633       0.00000000 NULL
P        0.22344143       1.40365883       9.75476633       0.00000000 NULL
P        4.55331260       2.73054474      16.41867765       0.00000000 NULL
P        3.26040615       0.18609963      16.41867765       0.00000000 NULL
P        1.70330527       2.57801201      16.41867765       0.00000000 NULL
21
Lattice="6.355341976545721 8.947218126989534e-16 0.0 -3.1776709882728618 5.503887601426202 0.0 0.0 0.0 19.741774824263395" Properties=species:S:1:pos:R:3:initial_magmoms:R:1:castep_labels:S:1 n_minim_iter=13 pbc="T T T"
P        4.25519572       2.55429215       2.63384580       0.00000000 NULL
P        3.26215502       0.54163394       2.63384580       0.00000000 NULL
P        2.01566223       2.40796152       2.63384580       0.00000000 NULL
P        3.23786258       4.07451743      11.58809220       0.00000000 NULL
P        5.08737530       0.66255764      11.58809220       0.00000000 NULL
P        1.20777509       0.76681253      11.58809220       0.00000000 NULL
P        5.01996869       0.90346512      17.53810676       0.00000000 NULL
P        1.45011039       0.70473463      17.53810676       0.00000000 NULL
P        3.06293389       3.89568785      17.53810676       0.00000000 NULL
P       -1.47690719       3.82855641      18.92395472       0.00000000 NULL
P        0.87640972       4.86864854      18.92395472       0.00000000 NULL
P        0.60049748       2.31057025      18.92395472       0.00000000 NULL
P        2.65699517       3.26920475      19.73840077       0.00000000 NULL
P        4.68038777       1.56825991      19.73840077       0.00000000 NULL
P        2.19563003       0.66642294      19.73840077       0.00000000 NULL
P       -2.07081471       4.60975889       9.73309370       0.00000000 NULL
P        1.84990467       4.99238630       9.73309370       0.00000000 NULL
P        0.22091004       1.40563001       9.73309370       0.00000000 NULL
P        4.56086777       2.73574389      16.38304446       0.00000000 NULL
P        3.26646082       0.18618831      16.38304446       0.00000000 NULL
P        1.70568439       2.58195540      16.38304446       0.00000000 NULL
21
Lattice="6.429327745204871 -3.294450065984801e-16 0.0 -3.214663872602436 5.567961156603545 0.0 0.0 0.0 19.339003587992195" Properties=species:S:1:pos:R:3:initial_magmoms:R:1:castep_labels:S:1 n_minim_iter=14 pbc="T T T"
P        4.27026583       2.55963688       2.57184501       0.00000000 NULL
P        3.29624152       0.58998403       2.57184501       0.00000000 NULL
P        2.07748428       2.41834025       2.57184501       0.00000000 NULL
P        3.24972095       4.13286513      11.35817798       0.00000000 NULL
P        5.16896959       0.68718770      11.35817798       0.00000000 NULL
P        1.22530109       0.74790833      11.35817798       0.00000000 NULL
P        5.04789100       0.93110597      17.18077951       0.00000000 NULL
P        1.49707979       0.73080633      17.18077951       0.00000000 NULL
P        3.09902083       3.90604886      17.18077951       0.00000000 NULL
P       -1.48908005       3.88263840      18.54817761       0.00000000 NULL
P        0.89233964       4.91622311      18.54817761       0.00000000 NULL
P        0.59674041       2.33706081      18.54817761       0.00000000 NULL
P        2.67688316       3.31697084      19.33689686       0.00000000 NULL
P        4.74880331       1.59122692      19.33689686       0.00000000 NULL
P        2.21830516       0.65976339      19.33689686       0.00000000 NULL
P       -2.08516763       4.68842881       9.52801356       0.00000000 NULL
P        1.88821840       5.02955490       9.52801356       0.00000000 NULL
P        0.19694924       1.41793861       9.52801356       0.00000000 NULL
P        4.61345398       2.77337284      16.04507081       0.00000000 NULL
P        3.30974822       0.18590639      16.04507081       0.00000000 NULL
P        1.72078942       2.60868193      16.04507081       0.00000000 NULL
21
Lattice="6.607234797466185 1.1305757622779756e-15 0.0 -3.303617398733094 5.722033183374248 0.0 0.0 0.0 19.63335403697744" Properties=species:S:1:pos:R:3:initial_magmoms:R:1:castep_labels:S:1 n_minim_iter=15 pbc="T T T"
P        4.37659092       2.62080232       2.60463948       0.00000000 NULL
P        3.38500333       0.62139311       2.60463948       0.00000000 NULL
P        2.14925795       2.47983776       2.60463948       0.00000000 NULL
P        3.31373998       4.25695563      11.53791918       0.00000000 NULL
P        5.33337913       0.72377236      11.53791918       0.00000000 NULL
P        1.26373309       0.74130519      11.53791918       0.00000000 NULL
P        5.16463935       0.97232916      17.44109281       0.00000000 NULL
P        1.56335948       0.76315973      17.44109281       0.00000000 NULL
P        3.18285338       3.98654430      17.44109281       0.00000000 NULL
P       -1.52177272       3.99819424      18.84041968       0.00000000 NULL
P        0.91980674       5.04082991      18.84041968       0.00000000 NULL
P        0.60196599       2.40504223      18.84041968       0.00000000 NULL
P        2.73717828       3.41722940      19.63305582       0.00000000 NULL
P        4.89443573       1.64295256      19.63305582       0.00000000 NULL
P        2.27923819       0.66185123      19.63305582       0.00000000 NULL
P       -2.13362153       4.84339856       9.66617188       0.00000000 NULL
P        1.95769956       5.14810435       9.66617188       0.00000000 NULL
P        0.17592197       1.45256346       9.66617188       0.00000000 NULL
P        4.74582534       2.85924548      16.28505499       0.00000000 NULL
P        3.40688395       0.18240514      16.28505499       0.00000000 NULL
P        1.75814291       2.68038257      16.28505499       0.00000000 NULL
21
Lattice="6.468361981482258 -3.406536960920162e-17 0.0 -3.2341809907411294 5.601765796837086 0.0 0.0 0.0 19.2534666088228" Properties=species:S:1:pos:R:3:initial_magmoms:R:1:castep_labels:S:1 n_minim_iter=16 pbc="T T T"
P        4.28213026       2.56378460       2.55361803       0.00000000 NULL
P        3.31341846       0.61143991       2.55361803       0.00000000 NULL
P        2.10699426       2.42654129       2.55361803       0.00000000 NULL
P        3.24272055       4.17076271      11.31374124       0.00000000 NULL
P        5.22480718       0.70810607      11.31374124       0.00000000 NULL
P        1.23501525       0.72289702      11.31374124       0.00000000 NULL
P        5.05351853       0.95308707      17.10356105       0.00000000 NULL
P        1.53281934       0.74874684      17.10356105       0.00000000 NULL
P        3.11620511       3.89993189      17.10356105       0.00000000 NULL
P       -1.48910310       3.91407117      18.47665779       0.00000000 NULL
P        0.90005563       4.93433133      18.47665779       0.00000000 NULL
P        0.58904748       2.35512910      18.47665779       0.00000000 NULL
P        2.67859670       3.34553112      19.25235345       0.00000000 NULL
P        4.79219758       1.60926745      19.25235345       0.00000000 NULL
P        2.23174870       0.64696723      19.25235345       0.00000000 NULL
P       -2.09061691       4.74449865       9.48007007       0.00000000 NULL
P        1.91998383       5.04004383       9.48007007       0.00000000 NULL
P        0.17063309       1.41898912       9.48007007       0.00000000 NULL
P        4.64581558       2.79966081      15.97067845       0.00000000 NULL
P        3.33585058       0.17854108      15.97067845       0.00000000 NULL
P        1.72087681       2.62356391      15.97067845       0.00000000 NULL
