8
Lattice="4.35688 1.2816133472599497e-15 4.186277697925067e-16 -2.0581237614275865 4.6291127900546085 6.037678563790364e-16 -0.37863665938651897 -2.0116389458654984 8.339383062106322" Properties=species:S:1:pos:R:3:initial_magmoms:R:1:castep_labels:S:1 n_minim_iter=1 pbc="T T T"
P       -0.73657829       2.08506912       7.49323423       0.00000000 NULL
P        2.65082474       1.83105255       5.49171725       0.00000000 NULL
P        0.87108290       2.50509439       4.78661991       0.00000000 NULL
P       -0.97645477       2.14468141       1.53884467       0.00000000 NULL
P        3.56591277      -0.19861659       4.50023882       0.00000000 NULL
P        1.57069395       0.22508799       4.56183184       0.00000000 NULL
P        2.79926409       0.88027342       0.08633930       0.00000000 NULL
P        0.50049859      -0.40636970       2.97601476       0.00000000 NULL
8
Lattice="4.364777420544522 0.0004390596593024715 0.0004887769709409925 -2.0613878890125075 4.63381803106619 0.001281743755154983 -0.37859015455975015 -2.011086931416387 8.34510515825926" Properties=species:S:1:pos:R:3:initial_magmoms:R:1:castep_labels:S:1 n_minim_iter=2 pbc="T T T"
P       -0.73696329       2.08949322       7.49967016       0.00000000 NULL
P        2.65666878       1.83511473       5.49692852       0.00000000 NULL
P        0.87324393       2.50932323       4.79120109       0.00000000 NULL
P       -0.97777808       2.14738920       1.54071214       0.00000000 NULL
P        3.57286223      -0.19691424       4.50419904       0.00000000 NULL
P        1.57401973       0.22702908       4.56575728       0.00000000 NULL
P        2.80448878       0.88158097       0.08689673       0.00000000 NULL
P        0.50171291      -0.40581774       2.97779475       0.00000000 NULL
8
Lattice="4.589543594163053 0.012965739864381577 0.014085217696916183 -2.1542546163805323 4.765745896553238 0.037596490622729 -0.37788275462902504 -1.9950860215103556 8.503298737773987" Properties=species:S:1:pos:R:3:initial_magmoms:R:1:castep_labels:S:1 n_minim_iter=3 pbc="T T T"
P       -0.74857446       2.21396312       7.67842927       0.00000000 NULL
P        2.82285819       1.94967472       5.64175132       0.00000000 NULL
P        0.93424736       2.62821290       4.91858500       0.00000000 NULL
P       -1.01546303       2.22341779       1.59290645       0.00000000 NULL
P        3.77024804      -0.14860107       4.61412937       0.00000000 NULL
P        1.66837912       0.28196219       4.67472812       0.00000000 NULL
P        2.95323294       0.91843440       0.10240211       0.00000000 NULL
P        0.53603165      -0.39021756       3.02666551       0.00000000 NULL
8
Lattice="4.661226364931369 0.01724433968933167 0.009338529868335504 -2.183570524238916 4.800665230571246 0.04858293423771614 -0.3951733779603303 -1.995758093228949 8.496091557443565" Properties=species:S:1:pos:R:3:initial_magmoms:R:1:castep_labels:S:1 n_minim_iter=4 pbc="T T T"
P       -0.76926867       2.24100248       7.68223065       0.00000000 NULL
P        2.86659073       1.97926928       5.64010229       0.00000000 NULL
P        0.94364620       2.65595046       4.92101574       0.00000000 NULL
P       -1.03019292       2.24188969       1.59862465       0.00000000 NULL
P        3.82116114      -0.13740534       4.61095094       0.00000000 NULL
P        1.69004936       0.29507751       4.67336504       0.00000000 NULL
P        3.00117920       0.92965899       0.09771758       0.00000000 NULL
P        0.54101355      -0.38680729       3.01715563       0.00000000 NULL
8
Lattice="4.713504299449914 0.02281132163045461 0.002048486993285383 -2.202350998322508 4.819912836584718 0.05565484573189855 -0.4162406463367012 -1.9992127346106636 8.431832173702066" Properties=species:S:1:pos:R:3:initial_magmoms:R:1:castep_labels:S:1 n_minim_iter=5 pbc="T T T"
P       -0.79170009       2.25162545       7.63198252       0.00000000 NULL
P        2.89693205       1.99905458       5.59508392       0.00000000 NULL
P        0.94781285       2.66973443       4.88689608       0.00000000 NULL
P       -1.04065533       2.25088155       1.59193205       0.00000000 NULL
P        3.85145046      -0.13003554       4.57433152       0.00000000 NULL
P        1.70320533       0.30312318       4.63838772       0.00000000 NULL
P        3.03733643       0.93914976       0.08823066       0.00000000 NULL
P        0.54171573      -0.38432126       2.98561433       0.00000000 NULL
8
Lattice="4.743410817328071 0.029659168840747784 -0.005263308182173392 -2.209202657757947 4.820486054456661 0.05950081890115343 -0.43599674726365883 -2.0007565023963765 8.32343590599342" Properties=species:S:1:pos:R:3:initial_magmoms:R:1:castep_labels:S:1 n_minim_iter=6 pbc="T T T"
P       -0.81071245       2.24787145       7.54022850       0.00000000 NULL
P        2.91460837       2.00976239       5.51820514       0.00000000 NULL
P        0.94929435       2.67038378       4.82548077       0.00000000 NULL
P       -1.04525859       2.25001646       1.57553162       0.00000000 NULL
P        3.86196109      -0.12475722       4.51308712       0.00000000 NULL
P        1.70932026       0.30769016       4.57834433       0.00000000 NULL
P        3.05955070       0.94596001       0.07666269       0.00000000 NULL
P        0.53915438      -0.38149203       2.93814578       0.00000000 NULL
8
Lattice="4.771832474369338 0.03999390857155017 -0.0113915214603649 -2.211648126034799 4.812285467686752 0.06508760893259677 -0.4549682966814364 -1.995362996057567 8.190534447089533" Properties=species:S:1:pos:R:3:initial_magmoms:R:1:castep_labels:S:1 n_minim_iter=7 pbc="T T T"
P       -0.82705375       2.24275828       7.42956474       0.00000000 NULL
P        2.93551621       2.02374630       5.42709715       0.00000000 NULL
P        0.95426355       2.66975117       4.75263071       0.00000000 NULL
P       -1.04667244       2.24606755       1.55599090       0.00000000 NULL
P        3.87087702      -0.11457818       4.44021206       0.00000000 NULL
P        1.71740874       0.31587484       4.50661358       0.00000000 NULL
P        3.08164321       0.95352674       0.06474916       0.00000000 NULL
P        0.53606004      -0.37562912       2.88112666       0.00000000 NULL
8
Lattice="4.801962172092314 0.05407493117947065 -0.014348200125791716 -2.210920083251182 4.798130437149681 0.07257679212206526 -0.46974745460004014 -1.9823503560321785 8.059720815968054" Properties=species:S:1:pos:R:3:initial_magmoms:R:1:castep_labels:S:1 n_minim_iter=8 pbc="T T T"
P       -0.83705129       2.23995357       7.32420869       0.00000000 NULL
P        2.96352501       2.04283897       5.34140513       0.00000000 NULL
P        0.96548426       2.67090889       4.68457051       0.00000000 NULL
P       -1.04472517       2.24113168       1.53817667       0.00000000 NULL
P        3.88390316      -0.09801067       4.37156269       0.00000000 NULL
P        1.73015604       0.32890356       4.43859314       0.00000000 NULL
P        3.10537826       0.96219543       0.05506483       0.00000000 NULL
P        0.53419148      -0.36661562       2.82529958       0.00000000 NULL
8
Lattice="4.833768341604657 0.07185297152564049 -0.014423315605617094 -2.207055960136653 4.777065184401993 0.08026583572650589 -0.48086375729226855 -1.9646027354450786 7.934883658779093" Properties=species:S:1:pos:R:3:initial_magmoms:R:1:castep_labels:S:1 n_minim_iter=9 pbc="T T T"
P       -0.84099479       2.23621819       7.22612818       0.00000000 NULL
P        2.99803535       2.06411033       5.26216032       0.00000000 NULL
P        0.98250653       2.67133723       4.62192359       0.00000000 NULL
P       -1.03954267       2.23420249       1.52177249       0.00000000 NULL
P        3.90105145      -0.07660186       4.30861738       0.00000000 NULL
P        1.74673466       0.34482960       4.37544267       0.00000000 NULL
P        3.13062518       0.97170281       0.04735702       0.00000000 NULL
P        0.53369109      -0.35552393       2.77223837       0.00000000 NULL
8
Lattice="4.875287648483661 0.09828130002517368 -0.010802138025884351 -2.198589387398534 4.742180872571163 0.08669172460248349 -0.489743184673147 -1.942507384031046 7.794123950116043" Properties=species:S:1:pos:R:3:initial_magmoms:R:1:castep_labels:S:1 n_minim_iter=10 pbc="T T T"
P       -0.83807122       2.22501137       7.11686883       0.00000000 NULL
P        3.04897619       2.08878598       5.17406539       0.00000000 NULL
P        1.01069362       2.66723200       4.55216398       0.00000000 NULL
P       -1.02910372       2.22193008       1.50254744       0.00000000 NULL
P        3.92782509      -0.04714110       4.24076524       0.00000000 NULL
P        1.77163334       0.36471824       4.30564647       0.00000000 NULL
P        3.16369659       0.98440109       0.03992240       0.00000000 NULL
P        0.53521165      -0.34113520       2.71203944       0.00000000 NULL
8
Lattice="4.908176179187595 0.12369866848123383 -0.005297316156508671 -2.1871198957234648 4.7037391611455694 0.0894119680259232 -0.49380034333441414 -1.923643490433561 7.685652091798044" Properties=species:S:1:pos:R:3:initial_magmoms:R:1:castep_labels:S:1 n_minim_iter=11 pbc="T T T"
P       -0.82938490       2.20906867       7.03303846       0.00000000 NULL
P        3.09500040       2.10607384       5.10664628       0.00000000 NULL
P        1.03844543       2.65837788       4.49846829       0.00000000 NULL
P       -1.01657632       2.20760567       1.48681533       0.00000000 NULL
P        3.95192110      -0.02028825       4.19049075       0.00000000 NULL
P        1.79326530       0.38060031       4.25229212       0.00000000 NULL
P        3.19024482       0.99521217       0.03534113       0.00000000 NULL
P        0.53789186      -0.32872161       2.66593230       0.00000000 NULL
8
Lattice="4.940989595304146 0.1518144571655102 0.0021194866899470234 -2.172747894291755 4.661082310254874 0.09146590835108581 -0.4954372068100502 -1.9033095414107715 7.582872090549354" Properties=species:S:1:pos:R:3:initial_magmoms:R:1:castep_labels:S:1 n_minim_iter=12 pbc="T T T"
P       -0.81604585       2.19159819       6.95480508       0.00000000 NULL
P        3.14483805       2.12365666       5.04418326       0.00000000 NULL
P        1.06947830       2.64833005       4.44860523       0.00000000 NULL
P       -1.00116662       2.19197446       1.47189781       0.00000000 NULL
P        3.97847760       0.00980617       4.14482854       0.00000000 NULL
P        1.81572310       0.39734881       4.20242474       0.00000000 NULL
P        3.21672817       1.00697819       0.03226821       0.00000000 NULL
P        0.54195458      -0.31544256       2.62244677       0.00000000 NULL
8
Lattice="4.970945546404871 0.18152745150735553 0.011279054954733816 -2.1553290653632375 4.617251086627465 0.0937835546001443 -0.4942274166451375 -1.8809737652598544 7.486133027105411" Properties=species:S:1:pos:R:3:initial_magmoms:R:1:castep_labels:S:1 n_minim_iter=13 pbc="T T T"
P       -0.79831553       2.17533224       6.88305272       0.00000000 NULL
P        3.19616201       2.14287844       4.98752667       0.00000000 NULL
P        1.10234221       2.63920750       4.40340793       0.00000000 NULL
P       -0.98288490       2.17667912       1.45838686       0.00000000 NULL
P        4.00511955       0.04293175       4.10401533       0.00000000 NULL
P        1.83760769       0.41537687       4.15639725       0.00000000 NULL
P        3.24109068       1.01959303       0.03082085       0.00000000 NULL
P        0.54722354      -0.30111302       2.58163639       0.00000000 NULL
8
Lattice="4.985804742751023 0.1990373917280181 0.018540104497323084 -2.1437443021490044 4.593484696790704 0.093807444678359 -0.48970519904555987 -1.8695397186584386 7.426843676325418" Properties=species:S:1:pos:R:3:initial_magmoms:R:1:castep_labels:S:1 n_minim_iter=14 pbc="T T T"
P       -0.78416456       2.16563824       6.83852623       0.00000000 NULL
P        3.22746085       2.15435066       4.95352728       0.00000000 NULL
P        1.12288536       2.63429798       4.37552957       0.00000000 NULL
P       -0.97019872       2.16878639       1.44933988       0.00000000 NULL
P        4.02073198       0.06228220       4.08032252       0.00000000 NULL
P        1.85049798       0.42538910       4.12833764       0.00000000 NULL
P        3.25331046       1.02732668       0.03113974       0.00000000 NULL
P        0.55158845      -0.29290358       2.55690853       0.00000000 NULL
8
Lattice="5.007160620057153 0.22683743313770707 0.03182145212121017 -2.12429541011531 4.558050181670334 0.09305331497797689 -0.47897539207848133 -1.8523200731291003 7.327516271145706" Properties=species:S:1:pos:R:3:initial_magmoms:R:1:castep_labels:S:1 n_minim_iter=15 pbc="T T T"
P       -0.75826656       2.15104987       6.76328135       0.00000000 NULL
P        3.27843873       2.17348273       4.89736459       0.00000000 NULL
P        1.15673313       2.62769380       4.32872929       0.00000000 NULL
P       -0.94825118       2.15769329       1.43357311       0.00000000 NULL
P        4.04554541       0.09313519       4.04158318       0.00000000 NULL
P        1.87108089       0.44115347       4.08138776       0.00000000 NULL
P        3.27087443       1.03997850       0.03284100       0.00000000 NULL
P        0.55984965      -0.27984366       2.51589634       0.00000000 NULL
8
Lattice="5.030483637007895 0.25435007140798915 0.04695562198382149 -2.1060811259645873 4.528733585997299 0.09379653795337839 -0.4647374061944901 -1.8334008175310461 7.223361169853547" Properties=species:S:1:pos:R:3:initial_magmoms:R:1:castep_labels:S:1 n_minim_iter=16 pbc="T T T"
P       -0.72925865       2.14300679       6.68546021       0.00000000 NULL
P        3.33313886       2.19744834       4.84110808       0.00000000 NULL
P        1.19258747       2.62681683       4.28145392       0.00000000 NULL
P       -0.92548857       2.15070452       1.41752789       0.00000000 NULL
P        4.07390825       0.12591526       4.00255280       0.00000000 NULL
P        1.89297900       0.45887585       4.03282281       0.00000000 NULL
P        3.28903564       1.05363663       0.03649158       0.00000000 NULL
P        0.57039097      -0.26573356       2.47356402       0.00000000 NULL
8
Lattice="5.057992185434826 0.28204875231573123 0.06345003852286564 -2.089646355923221 4.506237093834489 0.09860420287440862 -0.44834545421027894 -1.8090199817730803 7.117862026326826" Properties=species:S:1:pos:R:3:initial_magmoms:R:1:castep_labels:S:1 n_minim_iter=17 pbc="T T T"
P       -0.69813709       2.14570062       6.61002042       0.00000000 NULL
P        3.39240950       2.22972878       4.78832756       0.00000000 NULL
P        1.23085232       2.63482306       4.23753867       0.00000000 NULL
P       -0.90237897       2.14901138       1.40319120       0.00000000 NULL
P        4.10669349       0.16303960       3.96513806       0.00000000 NULL
P        1.91663703       0.48097072       3.98500760       0.00000000 NULL
P        3.30938981       1.06881425       0.04224437       0.00000000 NULL
P        0.58315896      -0.24915949       2.43134521       0.00000000 NULL
8
Lattice="5.082313865672054 0.3085551946205194 0.07961497261894072 -2.0729728916373444 4.49167836235287 0.10882205972334233 -0.43175672415837535 -1.7782741316033117 7.004847717801432" Properties=species:S:1:pos:R:3:initial_magmoms:R:1:castep_labels:S:1 n_minim_iter=18 pbc="T T T"
P       -0.66714840       2.16052237       6.53165119       0.00000000 NULL
P        3.44871744       2.27025457       4.73429456       0.00000000 NULL
P        1.26766799       2.65239816       4.19349781       0.00000000 NULL
P       -0.87881027       2.15334645       1.38986331       0.00000000 NULL
P        4.13604543       0.20378624       3.92452378       0.00000000 NULL
P        1.93769167       0.50742807       3.93397391       0.00000000 NULL
P        3.32709531       1.08473003       0.04931516       0.00000000 NULL
P        0.59634586      -0.22995695       2.38721289       0.00000000 NULL
8
Lattice="5.100999563894487 0.33682410687603676 0.09723160849525116 -2.051764480165715 4.479787775837486 0.1218691086971087 -0.41271329408123336 -1.7428705094733292 6.890372312457687" Properties=species:S:1:pos:R:3:initial_magmoms:R:1:castep_labels:S:1 n_minim_iter=19 pbc="T T T"
P       -0.63120818       2.18245912       6.45417672       0.00000000 NULL
P        3.50362159       2.31707216       4.68284052       0.00000000 NULL
P        1.30635292       2.67615712       4.15180049       0.00000000 NULL
P       -0.85232149       2.16073266       1.37732919       0.00000000 NULL
P        4.16173356       0.24898406       3.88517476       0.00000000 NULL
P        1.95755921       0.53748471       3.88342298       0.00000000 NULL
P        3.34124993       1.10267078       0.05867622       0.00000000 NULL
P        0.61048597      -0.20860198       2.34345486       0.00000000 NULL
8
Lattice="5.119214213178739 0.36706438820292125 0.11553887052804432 -2.0282390053839605 4.4738382405860495 0.13620464773122534 -0.3932172305445187 -1.707715701187849 6.790814263159833" Properties=species:S:1:pos:R:3:initial_magmoms:R:1:castep_labels:S:1 n_minim_iter=20 pbc="T T T"
P       -0.59215772       2.21023509       6.39049183       0.00000000 NULL
P        3.55901453       2.36926497       4.64293375       0.00000000 NULL
P        1.34721119       2.70609627       4.11998934       0.00000000 NULL
P       -0.82477822       2.17172834       1.36779521       0.00000000 NULL
P        4.18739923       0.29675567       3.85488360       0.00000000 NULL
P        1.97760827       0.56957706       3.84160442       0.00000000 NULL
P        3.35546743       1.12347521       0.06976716       0.00000000 NULL
P        0.62555469      -0.18666387       2.30584149       0.00000000 NULL
8
Lattice="5.1402680222191055 0.42161350031452166 0.1448159840822365 -1.980226976613973 4.465217506987974 0.16388983294623752 -0.36419458071879407 -1.6451179049609328 6.629581856559407" Properties=species:S:1:pos:R:3:initial_magmoms:R:1:castep_labels:S:1 n_minim_iter=21 pbc="T T T"
P       -0.52457272       2.26300419       6.28971632       0.00000000 NULL
P        3.64463917       2.46319977       4.58119236       0.00000000 NULL
P        1.41541237       2.76265215       4.07148181       0.00000000 NULL
P       -0.77538272       2.19239192       1.35397306       0.00000000 NULL
P        4.22046769       0.38225465       3.80667899       0.00000000 NULL
P        2.00526131       0.62669542       3.77430331       0.00000000 NULL
P        3.37394050       1.16160307       0.08964707       0.00000000 NULL
P        0.64980786      -0.14755893       2.24630686       0.00000000 NULL
8
Lattice="5.185001629032035 0.5434385561250222 0.19183402757402848 -1.871921348530239 4.47128000710163 0.23523396643135921 -0.33433475781519484 -1.5148084365582515 6.361211415719984" Properties=species:S:1:pos:R:3:initial_magmoms:R:1:castep_labels:S:1 n_minim_iter=22 pbc="T T T"
P       -0.39940611       2.39889637       6.14260617       0.00000000 NULL
P        3.80417072       2.68059814       4.49271506       0.00000000 NULL
P        1.54920352       2.90713850       4.00907467       0.00000000 NULL
P       -0.67632575       2.24905993       1.34243641       0.00000000 NULL
P        4.27377027       0.57161026       3.73297818       0.00000000 NULL
P        2.04585465       0.75327447       3.66630700       0.00000000 NULL
P        3.41584565       1.25190045       0.12880828       0.00000000 NULL
P        0.69439351      -0.06187857       2.14921064       0.00000000 NULL
8
Lattice="5.104905071693856 0.6624466886545703 0.17981405767494854 -1.707640786228936 4.443081229017042 0.2880172504331791 -0.40532891757072803 -1.4524663879953912 6.156859723988031" Properties=species:S:1:pos:R:3:initial_magmoms:R:1:castep_labels:S:1 n_minim_iter=23 pbc="T T T"
P       -0.34047438       2.44710976       6.02203897       0.00000000 NULL
P        3.79580279       2.81493246       4.36525365       0.00000000 NULL
P        1.60183725       2.98290897       3.93297113       0.00000000 NULL
P       -0.58041030       2.26910790       1.31957239       0.00000000 NULL
P        4.15566531       0.71550767       3.64416032       0.00000000 NULL
P        1.96770058       0.82254429       3.55370755       0.00000000 NULL
P        3.38349600       1.34107636       0.12860614       0.00000000 NULL
P        0.69646267       0.01201349       2.06474965       0.00000000 NULL
8
Lattice="5.193584054890895 0.7137945016544075 0.2097684347525085 -1.6949751871209 4.5311305471485115 0.30547952133897344 -0.3794088439250144 -1.4487827041419832 6.275213221564195" Properties=species:S:1:pos:R:3:initial_magmoms:R:1:castep_labels:S:1 n_minim_iter=24 pbc="T T T"
P       -0.27300032       2.53574979       6.16125834       0.00000000 NULL
P        3.91457932       2.92882678       4.47960155       0.00000000 NULL
P        1.68313277       3.08124572       4.03542657       0.00000000 NULL
P       -0.55947355       2.32133017       1.35027359       0.00000000 NULL
P        4.25199456       0.78452241       3.74650154       0.00000000 NULL
P        2.02628928       0.87611898       3.64153116       0.00000000 NULL
P        3.45081709       1.39931096       0.15292587       0.00000000 NULL
P        0.71724087       0.03346341       2.10361515       0.00000000 NULL
8
Lattice="5.125611583700533 0.7020196545425524 0.19645017055839262 -1.6753766067805187 4.490203333307053 0.2947127845923915 -0.3935571556488821 -1.458287091759339 6.199822310333255" Properties=species:S:1:pos:R:3:initial_magmoms:R:1:castep_labels:S:1 n_minim_iter=25 pbc="T T T"
P       -0.28929770       2.48789562       6.07916560       0.00000000 NULL
P        3.84937620       2.88037016       4.40850033       0.00000000 NULL
P        1.65013724       3.03502044       3.97548104       0.00000000 NULL
P       -0.55719708       2.29464743       1.32704005       0.00000000 NULL
P        4.18402796       0.76132648       3.69237385       0.00000000 NULL
P        1.98620450       0.85257123       3.58983363       0.00000000 NULL
P        3.40665157       1.38585817       0.14264150       0.00000000 NULL
P        0.70124591       0.02830279       2.07488405       0.00000000 NULL
