12
Lattice="6.471609999999353 2.892327067546724e-06 -1.681785043364976e-31 -3.235807752472468 6.158683250184939 1.0619924728843327e-15 1.7422630344555862e-06 -3.8983305183309276 6.894457022670218" Properties=species:S:1:pos:R:3:initial_magmoms:R:1:castep_labels:S:1 n_minim_iter=1 pbc="T T T"
P       -1.79903280       4.27094810       0.38933137       0.00000000 NULL
P        1.43677501      -2.01059407       6.50512566       0.00000000 NULL
P        5.03483679      -2.01059247       6.50512566       0.00000000 NULL
P        1.79902898       4.27094970       0.38933137       0.00000000 NULL
P        1.00458066       4.87388305       2.21879553       0.00000000 NULL
P        4.24038901      -2.61352652       4.67566150       0.00000000 NULL
P        2.23122332      -2.61352742       4.67566150       0.00000000 NULL
P       -1.00458502       4.87388215       2.21879553       0.00000000 NULL
P        2.23179194       2.26482402       5.61866740       0.00000000 NULL
P        5.46759795      -0.00446639       1.27578963       0.00000000 NULL
P        1.00401204      -0.00446839       1.27578963       0.00000000 NULL
P       -2.23179397       2.26482202       5.61866740       0.00000000 NULL
12
Lattice="6.495969434010715 2.9032139180314066e-06 -6.837062071920389e-18 -3.2479874761100205 6.173522120836256 -0.0007217404746112046 1.7468219835437638e-06 -3.9085312113878095 6.909870295770596" Properties=species:S:1:pos:R:3:initial_magmoms:R:1:castep_labels:S:1 n_minim_iter=2 pbc="T T T"
P       -1.80583797       4.28109900       0.38947643       0.00000000 NULL
P        1.44214956      -2.01610680       6.51967213       0.00000000 NULL
P        5.05382167      -2.01610518       6.51967213       0.00000000 NULL
P        1.80583413       4.28110062       0.38947643       0.00000000 NULL
P        1.00842929       4.88519194       2.22332221       0.00000000 NULL
P        4.25641736      -2.62019722       4.68582635       0.00000000 NULL
P        2.23955441      -2.62019812       4.68582635       0.00000000 NULL
P       -1.00843366       4.88519104       2.22332221       0.00000000 NULL
P        2.24002983       2.26928944       5.63064346       0.00000000 NULL
P        5.48801556      -0.00429362       1.27850510       0.00000000 NULL
P        1.00795387      -0.00429562       1.27850510       0.00000000 NULL
P       -2.24003186       2.26928744       5.63064346       0.00000000 NULL
12
Lattice="7.005456352715279 3.130916577349919e-06 -3.828218324773218e-17 -3.502731073567139 6.48253292473632 -0.018437615709954665 1.8431033160025931e-06 -4.123961631520111 7.230148154215185" Properties=species:S:1:pos:R:3:initial_magmoms:R:1:castep_labels:S:1 n_minim_iter=3 pbc="T T T"
P       -1.94820007       4.49236973       0.39047865       0.00000000 NULL
P        1.55453107      -2.13379704       6.82123190       0.00000000 NULL
P        5.45092718      -2.13379530       6.82123190       0.00000000 NULL
P        1.94819604       4.49237147       0.39047865       0.00000000 NULL
P        1.08897390       5.11955850       2.31478510       0.00000000 NULL
P        4.59170560      -2.76098309       4.89692545       0.00000000 NULL
P        2.41375321      -2.76098407       4.89692545       0.00000000 NULL
P       -1.08897848       5.11955752       2.31478510       0.00000000 NULL
P        2.41214905       2.35964416       5.87713437       0.00000000 NULL
P        5.91487828      -0.00106757       1.33457617       0.00000000 NULL
P        1.09057807      -0.00106973       1.33457617       0.00000000 NULL
P       -2.41215116       2.35964200       5.87713437       0.00000000 NULL
12
Lattice="7.128877939411636 3.1860768226984137e-06 -1.6803893861253523e-17 -3.5644419140489982 6.5879949680139145 -0.06873213637688286 1.898101355572524e-06 -4.247020280879812 7.32780825549751" Properties=species:S:1:pos:R:3:initial_magmoms:R:1:castep_labels:S:1 n_minim_iter=4 pbc="T T T"
P       -1.98257482       4.56333387       0.35887489       0.00000000 NULL
P        1.58186718      -2.22235776       6.90020124       0.00000000 NULL
P        5.54701274      -2.22235599       6.90020124       0.00000000 NULL
P        1.98257074       4.56333564       0.35887489       0.00000000 NULL
P        1.10903817       5.18193584       2.29790601       0.00000000 NULL
P        4.67348072      -2.84095697       4.96117012       0.00000000 NULL
P        2.45539975      -2.84095796       4.96117012       0.00000000 NULL
P       -1.10904281       5.18193485       2.29790601       0.00000000 NULL
P        2.45257954       2.34943419       5.91321609       0.00000000 NULL
P        6.01701956      -0.00845412       1.34586004       0.00000000 NULL
P        1.11185838      -0.00845631       1.34586004       0.00000000 NULL
P       -2.45258164       2.34943200       5.91321609       0.00000000 NULL
12
Lattice="7.194487483405336 3.21539939618844e-06 -8.72824223665235e-18 -3.597246722408529 6.669356806659937 -0.1542929193407604 1.963925944391291e-06 -4.3943034397796366 7.396985975737917" Properties=species:S:1:pos:R:3:initial_magmoms:R:1:castep_labels:S:1 n_minim_iter=5 pbc="T T T"
P       -2.00066846       4.61658937       0.30076670       0.00000000 NULL
P        1.59657839      -2.34153457       6.94192636       0.00000000 NULL
P        5.59791118      -2.34153278       6.94192636       0.00000000 NULL
P        2.00066433       4.61659116       0.30076670       0.00000000 NULL
P        1.12086901       5.21162551       2.23628417       0.00000000 NULL
P        4.71811640      -2.93656792       5.00640889       0.00000000 NULL
P        2.47637370      -2.93656893       5.00640889       0.00000000 NULL
P       -1.12087368       5.21162451       2.23628417       0.00000000 NULL
P        2.47228163       2.29842905       5.89541932       0.00000000 NULL
P        6.06952641      -0.02337025       1.34727374       0.00000000 NULL
P        1.12496109      -0.02337246       1.34727374       0.00000000 NULL
P       -2.47228369       2.29842684       5.89541932       0.00000000 NULL
12
Lattice="7.198147513959827 3.2170351569030133e-06 5.233323499334044e-18 -3.5990767708910485 6.743653928999912 -0.27074156950444594 2.0432057469352778e-06 -4.571692770520912 7.458868670886361" Properties=species:S:1:pos:R:3:initial_magmoms:R:1:castep_labels:S:1 n_minim_iter=6 pbc="T T T"
P       -2.00139430       4.66366863       0.21987457       0.00000000 NULL
P        1.59768266      -2.49170604       6.96825254       0.00000000 NULL
P        5.60046708      -2.49170425       6.96825254       0.00000000 NULL
P        2.00139012       4.66367042       0.21987457       0.00000000 NULL
P        1.12382736       5.22402431       2.14145954       0.00000000 NULL
P        4.72290482      -3.05205892       5.04666757       0.00000000 NULL
P        2.47524542      -3.05205993       5.04666757       0.00000000 NULL
P       -1.12383204       5.22402330       2.14145954       0.00000000 NULL
P        2.46986032       2.21707670       5.84469850       0.00000000 NULL
P        6.06893509      -0.04511011       1.34342861       0.00000000 NULL
P        1.12921246      -0.04511232       1.34342861       0.00000000 NULL
P       -2.46986231       2.21707449       5.84469850       0.00000000 NULL
12
Lattice="7.160218787494148 3.200083844641038e-06 1.811982828381155e-17 -3.580112462149116 6.865577873809683 -0.4249039247048294 2.1548278421197574e-06 -4.821448296287762 7.574689904325786" Properties=species:S:1:pos:R:3:initial_magmoms:R:1:castep_labels:S:1 n_minim_iter=7 pbc="T T T"
P       -1.99072260       4.74148726       0.11343113       0.00000000 NULL
P        1.58939012      -2.69735626       7.03635486       0.00000000 NULL
P        5.57083107      -2.69735448       7.03635486       0.00000000 NULL
P        1.99071835       4.74148904       0.11343113       0.00000000 NULL
P        1.12131746       5.25948522       2.02756821       0.00000000 NULL
P        4.70143064      -3.21535143       5.12221778       0.00000000 NULL
P        2.45879102      -3.21535243       5.12221778       0.00000000 NULL
P       -1.12132216       5.25948421       2.02756821       0.00000000 NULL
P        2.45180302       2.11862196       5.80490439       0.00000000 NULL
P        6.03191339      -0.07448699       1.34488160       0.00000000 NULL
P        1.12830546      -0.07448918       1.34488160       0.00000000 NULL
P       -2.45180492       2.11861977       5.80490439       0.00000000 NULL
12
Lattice="7.036535242501221 3.1448065233217976e-06 1.0214911057006374e-16 -3.5182707558541493 7.013704395294352 -0.6316684196484483 2.300180378235641e-06 -5.146676012024442 7.772348062205521" Properties=species:S:1:pos:R:3:initial_magmoms:R:1:castep_labels:S:1 n_minim_iter=8 pbc="T T T"
P       -1.95666532       4.83410739      -0.02889039       0.00000000 NULL
P        1.56160579      -2.96707761       7.16957004       0.00000000 NULL
P        5.47493210      -2.96707586       7.16957004       0.00000000 NULL
P        1.95666100       4.83410914      -0.02889039       0.00000000 NULL
P        1.10717308       5.29531720       1.88988188       0.00000000 NULL
P        4.62544460      -3.42828467       5.25079777       0.00000000 NULL
P        2.41109371      -3.42828566       5.25079777       0.00000000 NULL
P       -1.10717781       5.29531621       1.88988188       0.00000000 NULL
P        2.40234267       1.98231875       5.78591984       0.00000000 NULL
P        5.92061123      -0.11528507       1.35475981       0.00000000 NULL
P        1.11592411      -0.11528721       1.35475981       0.00000000 NULL
P       -2.40234444       1.98231660       5.78591984       0.00000000 NULL
12
Lattice="6.794213118431888 3.036506604400043e-06 1.3751786473459714e-16 -3.3971097419914145 7.121489615954404 -0.8731920396725131 2.4515111991997806e-06 -5.485280198642634 8.076873166945601" Properties=species:S:1:pos:R:3:initial_magmoms:R:1:castep_labels:S:1 n_minim_iter=9 pbc="T T T"
P       -1.89013338       4.89610958      -0.19509031       0.00000000 NULL
P        1.50697682      -3.25989881       7.39877145       0.00000000 NULL
P        5.28723920      -3.25989712       7.39877145       0.00000000 NULL
P        1.89012900       4.89611127      -0.19509031       0.00000000 NULL
P        1.07800233       5.28553085       1.75583466       0.00000000 NULL
P        4.47511288      -3.64931743       5.44784647       0.00000000 NULL
P        2.31910350      -3.64931839       5.44784647       0.00000000 NULL
P       -1.07800706       5.28552989       1.75583466       0.00000000 NULL
P        2.30886722       1.79999016       5.82437790       0.00000000 NULL
P        5.70597466      -0.16377563       1.37930324       0.00000000 NULL
P        1.08823860      -0.16377770       1.37930324       0.00000000 NULL
P       -2.30886884       1.79998809       5.82437790       0.00000000 NULL
12
Lattice="6.707098120067356 2.9975726965307305e-06 1.0963072828983857e-16 -3.353552326325493 7.30835826995339 -1.0459743088809945 2.5908217453849018e-06 -5.79698890348838 8.314413327038679" Properties=species:S:1:pos:R:3:initial_magmoms:R:1:castep_labels:S:1 n_minim_iter=10 pbc="T T T"
P       -1.86615768       5.01411902      -0.31508827       0.00000000 NULL
P        1.48739518      -3.50274832       7.58352729       0.00000000 NULL
P        5.21970606      -3.50274665       7.58352729       0.00000000 NULL
P        1.86615320       5.01412069      -0.31508827       0.00000000 NULL
P        1.07755844       5.36409369       1.66851203       0.00000000 NULL
P        4.43111162      -3.85272036       5.59992700       0.00000000 NULL
P        2.27598994      -3.85272132       5.59992700       0.00000000 NULL
P       -1.07756324       5.36409273       1.66851203       0.00000000 NULL
P        2.26573501       1.70683553       5.86846948       0.00000000 NULL
P        5.61928492      -0.19546113       1.39996955       0.00000000 NULL
P        1.08781337      -0.19546316       1.39996955       0.00000000 NULL
P       -2.26573654       1.70683350       5.86846948       0.00000000 NULL
12
Lattice="6.613071573961029 2.95554984223951e-06 1.4592582117101328e-16 -3.306539033707595 7.2645820076341145 -1.08825880702477 2.599593385988018e-06 -5.816615534798459 8.298471599477153" Properties=species:S:1:pos:R:3:initial_magmoms:R:1:castep_labels:S:1 n_minim_iter=11 pbc="T T T"
P       -1.84021198       4.98133573      -0.34794297       0.00000000 NULL
P        1.46632761      -3.53336794       7.55815577       0.00000000 NULL
P        5.14674712      -3.53336630       7.55815577       0.00000000 NULL
P        1.84020753       4.98133738      -0.34794297       0.00000000 NULL
P        1.06643775       5.31367655       1.62194895       0.00000000 NULL
P        4.37297764      -3.86570617       5.58826385       0.00000000 NULL
P        2.24009738      -3.86570712       5.58826385       0.00000000 NULL
P       -1.06644251       5.31367560       1.62194895       0.00000000 NULL
P        2.23032027       1.65270739       5.81921341       0.00000000 NULL
P        5.53685689      -0.20473596       1.39099939       0.00000000 NULL
P        1.07621486      -0.20473795       1.39099939       0.00000000 NULL
P       -2.23032175       1.65270539       5.81921341       0.00000000 NULL
12
Lattice="6.613849017100898 2.9558973013481303e-06 1.4425471195096818e-16 -3.306927769550926 7.29651887014318 -1.1138321140646534 2.621422991076345e-06 -5.865459488922037 8.343550803563895" Properties=species:S:1:pos:R:3:initial_magmoms:R:1:castep_labels:S:1 n_minim_iter=12 pbc="T T T"
P       -1.84076289       5.00149817      -0.36589956       0.00000000 NULL
P        1.46616545      -3.57043748       7.59561825       0.00000000 NULL
P        5.14768676      -3.57043583       7.59561825       0.00000000 NULL
P        1.84075842       5.00149982      -0.36589956       0.00000000 NULL
P        1.06975120       5.32867444       1.61279472       0.00000000 NULL
P        4.37667983      -3.89761114       5.61692397       0.00000000 NULL
P        2.23717267      -3.89761210       5.61692397       0.00000000 NULL
P       -1.06975597       5.32867349       1.61279472       0.00000000 NULL
P        2.22740055       1.64008979       5.83423926       0.00000000 NULL
P        5.53432588      -0.20902545       1.39547943       0.00000000 NULL
P        1.07952332      -0.20902744       1.39547943       0.00000000 NULL
P       -2.22740202       1.64008780       5.83423926       0.00000000 NULL
12
Lattice="6.590856957266755 2.945621565173651e-06 1.4993302102676597e-16 -3.2954317455582576 7.3097747844411005 -1.1375788503969186 2.6370539735971433e-06 -5.900433964628842 8.366422646563343" Properties=species:S:1:pos:R:3:initial_magmoms:R:1:castep_labels:S:1 n_minim_iter=13 pbc="T T T"
P       -1.83467199       5.00892580      -0.38344542       0.00000000 NULL
P        1.46076034      -3.59958367       7.61228922       0.00000000 NULL
P        5.13009983      -3.59958203       7.61228922       0.00000000 NULL
P        1.83466751       5.00892744      -0.38344542       0.00000000 NULL
P        1.06906191       5.32985794       1.59782541       0.00000000 NULL
P        4.36449452      -3.92051321       5.63101839       0.00000000 NULL
P        2.22636594      -3.92051417       5.63101839       0.00000000 NULL
P       -1.06906668       5.32985698       1.59782541       0.00000000 NULL
P        2.21670524       1.62263466       5.83275768       0.00000000 NULL
P        5.51213453      -0.21328891       1.39608613       0.00000000 NULL
P        1.07872261      -0.21329089       1.39608613       0.00000000 NULL
P       -2.21670669       1.62263268       5.83275768       0.00000000 NULL
