12
Lattice="3.202937040563344 0.0 0.0 0.0 6.952576978420192 0.0 0.0 0.0 11.901108574004827" Properties=species:S:1:pos:R:3:initial_magmoms:R:1:castep_labels:S:1:forces:R:3 n_minim_iter=1 energy=-63.079776496391 stress="-0.010609352734390272 0.0 -0.0 0.0 -0.009334061528266872 -0.0 -0.0 -0.0 -0.021683006856180638" free_energy=-63.079776496391 pbc="T T T"
P        1.20249475       1.59549966       7.22467677       0.00000000 NULL      -0.02805800       0.35323200      -0.47440100
P        1.20249475       5.35707732       4.67643180       0.00000000 NULL      -0.02805800      -0.35323200       0.47440100
P        2.80396327       5.07178815      10.62698609       0.00000000 NULL      -0.02805900       0.35323300       0.47440100
P        2.80396327       1.88078883       1.27412248       0.00000000 NULL      -0.02805900      -0.35323200      -0.47440100
P        2.79683739       0.01882443       7.50351197       0.00000000 NULL       0.06426300      -0.50525300      -0.09863800
P        2.79683739       6.93375255       4.39759660       0.00000000 NULL       0.06426300       0.50525300       0.09863800
P        1.19536887       3.49511292      10.34815089       0.00000000 NULL       0.06426400      -0.50525300       0.09863900
P        1.19536887       3.45746406       1.55295768       0.00000000 NULL       0.06426300       0.50525300      -0.09863900
P        2.80785861       3.97421408       8.78040387       0.00000000 NULL      -0.03620500      -0.00959800      -0.57746000
P        2.80785861       2.97836290       3.12070471       0.00000000 NULL      -0.03620500       0.00959800       0.57745900
P        1.20639009       0.49792559       9.07125899       0.00000000 NULL      -0.03620500      -0.00959800       0.57746000
P        1.20639009       6.45465139       2.82984958       0.00000000 NULL      -0.03620500       0.00959800      -0.57746000
12
Lattice="3.2272897110599232 0.0 0.0 0.0 6.999063582696526 0.0 0.0 0.0 12.086776241400958" Properties=species:S:1:pos:R:3:initial_magmoms:R:1:castep_labels:S:1:forces:R:3 n_minim_iter=2 energy=-63.147042885245 stress="0.0033067267546180446 -0.0 0.0 -0.0 0.0009380029182757175 -0.0 0.0 -0.0 -0.0016059119820719496" free_energy=-63.147042885245 pbc="T T T"
P        1.21156143       1.60712549       7.33609010       0.00000000 NULL      -0.02392400      -0.01467900      -0.11406300
P        1.21156143       5.39193809       4.75068614       0.00000000 NULL      -0.02392400       0.01467900       0.11406300
P        2.82520629       5.10665728      10.79407426       0.00000000 NULL      -0.02392300      -0.01467900       0.11406200
P        2.82520629       1.89240630       1.29270198       0.00000000 NULL      -0.02392300       0.01467900      -0.11406200
P        2.81827683       0.01758009       7.62030343       0.00000000 NULL       0.05266300      -0.29022200       0.03479200
P        2.81827683       6.98148349       4.46647281       0.00000000 NULL       0.05266300       0.29022200      -0.03479200
P        1.20463197       3.51711188      10.50986093       0.00000000 NULL       0.05266200      -0.29022100      -0.03479200
P        1.20463197       3.48195170       1.57691531       0.00000000 NULL       0.05266200       0.29022100       0.03479200
P        2.82910913       4.00076060       8.91580593       0.00000000 NULL      -0.02873900       0.12468400       0.00705800
P        2.82910913       2.99830298       3.17097031       0.00000000 NULL      -0.02873900      -0.12468400      -0.00705800
P        1.21546428       0.50122881       9.21435843       0.00000000 NULL      -0.02874000       0.12468400      -0.00705800
P        1.21546428       6.49783477       2.87241781       0.00000000 NULL      -0.02874000      -0.12468400       0.00705800
12
Lattice="3.2072925049495615 0.0 0.0 0.0 6.989229337525998 0.0 0.0 0.0 12.141697892782137" Properties=species:S:1:pos:R:3:initial_magmoms:R:1:castep_labels:S:1:forces:R:3 n_minim_iter=3 energy=-63.15300886835 stress="-0.0017209551539475538 -0.0 -0.0 -0.0 0.00025884135481555335 0.0 -0.0 0.0 0.0009912760472567251" free_energy=-63.15300886835 pbc="T T T"
P        1.20386607       1.60483087       7.36842970       0.00000000 NULL      -0.02243900      -0.00117500      -0.06984400
P        1.20386607       5.38439847       4.77326819       0.00000000 NULL      -0.02243900       0.00117500       0.06984400
P        2.80751232       5.09944554      10.84411714       0.00000000 NULL      -0.02243700      -0.00117500       0.06984400
P        2.80751232       1.88978380       1.29758075       0.00000000 NULL      -0.02243700       0.00117500      -0.06984400
P        2.80122877       0.01523023       7.65518034       0.00000000 NULL       0.04988400      -0.33875700       0.03542600
P        2.80122877       6.97399911       4.48651755       0.00000000 NULL       0.04988400       0.33875700      -0.03542600
P        1.19758252       3.50984490      10.55736649       0.00000000 NULL       0.04988100      -0.33875700      -0.03542600
P        1.19758252       3.47938444       1.58433140       0.00000000 NULL       0.04988100       0.33875700       0.03542600
P        2.81135256       3.99608960       8.95624856       0.00000000 NULL      -0.02744400       0.15602400       0.07252800
P        2.81135256       2.99313974       3.18544933       0.00000000 NULL      -0.02744400      -0.15602400      -0.07252800
P        1.20770631       0.50147493       9.25629827       0.00000000 NULL      -0.02744500       0.15602400      -0.07252700
P        1.20770631       6.48775441       2.88539962       0.00000000 NULL      -0.02744500      -0.15602400       0.07252700
12
Lattice="3.199626996631778 0.0 0.0 0.0 6.888502669649626 0.0 0.0 0.0 12.19628969097228" Properties=species:S:1:pos:R:3:initial_magmoms:R:1:castep_labels:S:1:forces:R:3 n_minim_iter=4 energy=-63.201163051153 stress="-0.00041634730164590933 -0.0 0.0 -0.0 -0.0015534902892006051 -0.0 0.0 -0.0 0.0007740295126292383" free_energy=-63.201163051153 pbc="T T T"
P        1.19818827       1.58128001       7.39027988       0.00000000 NULL       0.01261100      -0.10851900      -0.06932700
P        1.19818827       5.30722266       4.80600981       0.00000000 NULL       0.01261100       0.10851900       0.06932700
P        2.79800177       5.02553134      10.90415466       0.00000000 NULL       0.01261100      -0.10851600       0.06932800
P        2.79800177       1.86297133       1.29213503       0.00000000 NULL       0.01261100       0.10851600      -0.06932800
P        2.80073789      -0.02391573       7.69392818       0.00000000 NULL      -0.00925400      -0.13319300       0.07597600
P        2.80073789       6.91241840       4.50236151       0.00000000 NULL      -0.00925400       0.13319300      -0.07597600
P        1.20092439       3.42033561      10.60050636       0.00000000 NULL      -0.00925400      -0.13319600      -0.07597500
P        1.20092439       3.46816706       1.59578334       0.00000000 NULL      -0.00925400       0.13319600       0.07597500
P        2.80122974       3.95580658       9.00203802       0.00000000 NULL      -0.00335700       0.07251400       0.14816600
P        2.80122974       2.93269609       3.19425167       0.00000000 NULL      -0.00335700      -0.07251400      -0.14816600
P        1.20141624       0.51155525       9.29239651       0.00000000 NULL      -0.00335700       0.07251300      -0.14816700
P        1.20141624       6.37694742       2.90389318       0.00000000 NULL      -0.00335700      -0.07251300       0.14816700
12
Lattice="3.185777194992191 0.0 0.0 0.0 6.962242936900628 0.0 0.0 0.0 12.182457779679384" Properties=species:S:1:pos:R:3:initial_magmoms:R:1:castep_labels:S:1:forces:R:3 n_minim_iter=5 energy=-63.210383322508 stress="-0.0015552417824109038 0.0 0.0 0.0 0.0026293741232802656 -0.0 0.0 -0.0 -0.0002693842788446832" free_energy=-63.210383322508 pbc="T T T"
P        1.19293212       1.59454158       7.37724803       0.00000000 NULL       0.01393500      -0.20265500      -0.02730300
P        1.19293212       5.36770136       4.80520974       0.00000000 NULL       0.01393500       0.20265500       0.02730300
P        2.78582072       5.07566305      10.89643863       0.00000000 NULL       0.01393400      -0.20265500       0.02730400
P        2.78582072       1.88657989       1.28601915       0.00000000 NULL       0.01393400       0.20265500      -0.02730400
P        2.78938120      -0.03498317       7.68855243       0.00000000 NULL      -0.01453700      -0.04096200       0.03366400
P        2.78938120       6.99722611       4.49390535       0.00000000 NULL      -0.01453700       0.04096200      -0.03366400
P        1.19649260       3.44613830      10.58513424       0.00000000 NULL      -0.01453600      -0.04096200      -0.03366400
P        1.19649260       3.51610464       1.59732354       0.00000000 NULL      -0.01453600       0.04096200       0.03366400
P        2.78840764       4.00330454       8.99741924       0.00000000 NULL       0.00060100       0.08248700       0.09419400
P        2.78840764       2.95893840       3.18503854       0.00000000 NULL       0.00060100      -0.08248700      -0.09419400
P        1.19551905       0.52218307       9.27626743       0.00000000 NULL       0.00060200       0.08248600      -0.09419400
P        1.19551905       6.44005987       2.90619035       0.00000000 NULL       0.00060200      -0.08248600       0.09419400
12
Lattice="3.190511463671546 0.0 0.0 0.0 6.942534721696999 0.0 0.0 0.0 12.395048740781954" Properties=species:S:1:pos:R:3:initial_magmoms:R:1:castep_labels:S:1:forces:R:3 n_minim_iter=6 energy=-63.248249389696 stress="-0.001103611091024509 -0.0 -0.0 -0.0 0.001498325064405123 -0.0 -0.0 -0.0 0.0009962002293931137" free_energy=-63.248249389696 pbc="T T T"
P        1.19746164       1.55460156       7.48696012       0.00000000 NULL      -0.00382400      -0.06387200      -0.10040700
P        1.19746164       5.38793317       4.90808862       0.00000000 NULL      -0.00382400       0.06387200       0.10040700
P        2.79271737       5.02586892      11.10561299       0.00000000 NULL      -0.00382600      -0.06387000       0.10040800
P        2.79271737       1.91666581       1.28943575       0.00000000 NULL      -0.00382600       0.06387000      -0.10040800
P        2.79183423      -0.06370304       7.83922784       0.00000000 NULL       0.00211200      -0.09368600      -0.04862300
P        2.79183423       7.00623776       4.55582090       0.00000000 NULL       0.00211200       0.09368600       0.04862300
P        1.19657850       3.40756432      10.75334527       0.00000000 NULL       0.00211500      -0.09368900       0.04862400
P        1.19657850       3.53497040       1.64170347       0.00000000 NULL       0.00211500       0.09368900      -0.04862400
P        2.79148674       4.01179592       9.18516228       0.00000000 NULL       0.00171100       0.00186800      -0.04375700
P        2.79148674       2.93073881       3.20988646       0.00000000 NULL       0.00171100      -0.00186800       0.04375700
P        1.19623101       0.54052856       9.40741083       0.00000000 NULL       0.00171200       0.00186700       0.04375600
P        1.19623101       6.40200617       2.98763791       0.00000000 NULL       0.00171200      -0.00186700      -0.04375600
12
Lattice="3.1939379793727274 0.0 0.0 0.0 6.923100935052218 0.0 0.0 0.0 12.361720208921612" Properties=species:S:1:pos:R:3:initial_magmoms:R:1:castep_labels:S:1:forces:R:3 n_minim_iter=7 energy=-63.266498839192 stress="-0.0007289042487898753 -0.0 -0.0 -0.0 0.001201096937965288 0.0 -0.0 0.0 0.0013220809949191182" free_energy=-63.266498839192 pbc="T T T"
P        1.20082304       1.52507640       7.43470345       0.00000000 NULL      -0.02273600      -0.06106400       0.04142500
P        1.20082304       5.39802454       4.92701676       0.00000000 NULL      -0.02273600       0.06106400      -0.04142500
P        2.79779203       4.98662687      11.10787686       0.00000000 NULL      -0.02273600      -0.06106300      -0.04142500
P        2.79779203       1.93647407       1.25384335       0.00000000 NULL      -0.02273600       0.06106300       0.04142500
P        2.79165594      -0.08199040       7.81705313       0.00000000 NULL       0.03091300      -0.07111500      -0.01023600
P        2.79165594       7.00509134       4.54466708       0.00000000 NULL       0.03091300       0.07111600       0.01023600
P        1.19468695       3.37956007      10.72552718       0.00000000 NULL       0.03091300      -0.07111600       0.01023600
P        1.19468695       3.54354087       1.63619303       0.00000000 NULL       0.03091300       0.07111600      -0.01023600
P        2.79558597       4.00070650       9.16312330       0.00000000 NULL      -0.00817700       0.01610100       0.04271000
P        2.79558597       2.92239443       3.19859691       0.00000000 NULL      -0.00817700      -0.01610100      -0.04271000
P        1.19861698       0.53915604       9.37945701       0.00000000 NULL      -0.00817700       0.01610000      -0.04271000
P        1.19861698       6.38394490       2.98226320       0.00000000 NULL      -0.00817700      -0.01610100       0.04271000
12
Lattice="3.193994576273322 0.0 0.0 0.0 6.931400858236076 0.0 0.0 0.0 12.399372791936976" Properties=species:S:1:pos:R:3:initial_magmoms:R:1:castep_labels:S:1:forces:R:3 n_minim_iter=8 energy=-63.274084050896 stress="-0.00023653228188136376 0.0 -0.0 0.0 0.000934362620972601 -0.0 -0.0 -0.0 0.000807408208165493" free_energy=-63.274084050896 pbc="T T T"
P        1.18976172       1.48898801       7.45164152       0.00000000 NULL       0.06980300       0.02824100       0.00980300
P        1.18976172       5.44241285       4.94773127       0.00000000 NULL       0.06980300      -0.02824100      -0.00980300
P        2.78675901       4.95468843      11.14741767       0.00000000 NULL       0.06980500       0.02824200      -0.00980200
P        2.78675901       1.97671242       1.25195513       0.00000000 NULL       0.06980500      -0.02824300       0.00980200
P        2.80520704      -0.11537583       7.83206121       0.00000000 NULL      -0.09235900      -0.06004300       0.07270500
P        2.80520704       7.04677668       4.56731158       0.00000000 NULL      -0.09235900       0.06004300      -0.07270500
P        1.20820975       3.35032460      10.76699798       0.00000000 NULL      -0.09236100      -0.06004500      -0.07270500
P        1.20820975       3.58107625       1.63237481       0.00000000 NULL      -0.09236100       0.06004500       0.07270500
P        2.79321648       3.99066419       9.19903722       0.00000000 NULL       0.02255700      -0.04232400       0.03073800
P        2.79321648       2.94073667       3.20033557       0.00000000 NULL       0.02255700       0.04232400      -0.03073800
P        1.19621919       0.52496376       9.40002197       0.00000000 NULL       0.02255600      -0.04232500      -0.03073800
P        1.19621919       6.40643710       2.99935082       0.00000000 NULL       0.02255600       0.04232500       0.03073800
12
Lattice="3.195814004060745 0.0 0.0 0.0 6.885465060164887 0.0 0.0 0.0 12.454257780370439" Properties=species:S:1:pos:R:3:initial_magmoms:R:1:castep_labels:S:1:forces:R:3 n_minim_iter=9 energy=-63.286581566465 stress="7.47668924185119e-05 -0.0 -0.0 -0.0 0.000228059091076476 -0.0 -0.0 -0.0 0.00024469828236141567" free_energy=-63.286581566465 pbc="T T T"
P        1.19316316       1.45368285       7.48185742       0.00000000 NULL       0.04104900       0.01988700       0.01249500
P        1.19316316       5.43178221       4.97240036       0.00000000 NULL       0.04104900      -0.01988700      -0.01249500
P        2.79107016       4.89641538      11.19952925       0.00000000 NULL       0.04104900       0.01988700      -0.01249500
P        2.79107016       1.98904968       1.25472853       0.00000000 NULL       0.04104900      -0.01988700       0.01249500
P        2.80194223      -0.15339495       7.87355985       0.00000000 NULL      -0.04900600      -0.01821700       0.02284400
P        2.80194223       7.03886001       4.58069793       0.00000000 NULL      -0.04900600       0.01821700      -0.02284400
P        1.20403523       3.28933758      10.80782682       0.00000000 NULL      -0.04900600      -0.01821700      -0.02284400
P        1.20403523       3.59612748       1.64643096       0.00000000 NULL      -0.04900600       0.01821700       0.02284400
P        2.79694676       3.93799255       9.24990783       0.00000000 NULL       0.00795600      -0.04596300      -0.00971100
P        2.79694676       2.94747251       3.20434995       0.00000000 NULL       0.00795600       0.04596300       0.00971100
P        1.19903976       0.49526002       9.43147884       0.00000000 NULL       0.00795600      -0.04596300       0.00971200
P        1.19903976       6.39020504       3.02277894       0.00000000 NULL       0.00795600       0.04596300      -0.00971200
12
Lattice="3.19331828848543 0.0 0.0 0.0 6.879224311839273 0.0 0.0 0.0 12.453812253265463" Properties=species:S:1:pos:R:3:initial_magmoms:R:1:castep_labels:S:1:forces:R:3 n_minim_iter=10 energy=-63.290519908836 stress="0.00016912802366173763 -0.0 0.0 -0.0 1.0965724464776592e-05 0.0 0.0 0.0 -0.0004932017340107685" free_energy=-63.290519908836 pbc="T T T"
P        1.20610663       1.42418242       7.49912885       0.00000000 NULL      -0.05247900       0.04567600      -0.04457100
P        1.20610663       5.45504190       4.95468340       0.00000000 NULL      -0.05247900      -0.04567600       0.04457100
P        2.80276577       4.86379457      11.18158953       0.00000000 NULL      -0.05248000       0.04567300       0.04457000
P        2.80276577       2.01542974       1.27222273       0.00000000 NULL      -0.05248000      -0.04567300      -0.04457000
P        2.78976370      -0.18986046       7.87068708       0.00000000 NULL       0.04742800       0.02087000       0.06450600
P        2.78976370       7.06908477       4.58312517       0.00000000 NULL       0.04742800      -0.02087000      -0.06450600
P        1.19310456       3.24975170      10.81003130       0.00000000 NULL       0.04742900       0.02087200      -0.06450700
P        1.19310456       3.62947261       1.64378096       0.00000000 NULL       0.04742900      -0.02087200       0.06450700
P        2.79087595       3.89551370       9.24309331       0.00000000 NULL       0.00505100      -0.07487100      -0.01232400
P        2.79087595       2.98371061       3.21071895       0.00000000 NULL       0.00505100       0.07487100       0.01232400
P        1.19421681       0.45590154       9.43762507       0.00000000 NULL       0.00505100      -0.07487000       0.01232500
P        1.19421681       6.42332277       3.01618718       0.00000000 NULL       0.00505100       0.07487000      -0.01232500
12
Lattice="3.1982049286155356 0.0 0.0 0.0 6.8441429649825425 0.0 0.0 0.0 12.445597524500355" Properties=species:S:1:pos:R:3:initial_magmoms:R:1:castep_labels:S:1:forces:R:3 n_minim_iter=11 energy=-63.29450916593 stress="-0.0001615879221369119 0.0 -0.0 0.0 -0.0008113901478678557 -0.0 -0.0 -0.0 -0.0011323268137567748" free_energy=-63.29450916593 pbc="T T T"
P        1.20728028       1.40248648       7.50078535       0.00000000 NULL      -0.03908100       0.01192300      -0.01394800
P        1.20728028       5.44165648       4.94481217       0.00000000 NULL      -0.03908100      -0.01192300       0.01394800
P        2.80638274       4.82455796      11.16761093       0.00000000 NULL      -0.03908100       0.01192300       0.01394900
P        2.80638274       2.01958500       1.27798659       0.00000000 NULL      -0.03908100      -0.01192300      -0.01394900
P        2.79744720      -0.21061058       7.87798537       0.00000000 NULL       0.01750100       0.00924800      -0.03607700
P        2.79744720       7.05475355       4.56761215       0.00000000 NULL       0.01750100      -0.00924800       0.03607700
P        1.19834473       3.21146090      10.79041091       0.00000000 NULL       0.01750100       0.00924800       0.03607800
P        1.19834473       3.63268206       1.65518661       0.00000000 NULL       0.01750100      -0.00924800      -0.03607800
P        2.79240298       3.83646184       9.23406771       0.00000000 NULL       0.02158000      -0.01404500      -0.04129800
P        2.79240298       3.00768113       3.21152982       0.00000000 NULL       0.02158000       0.01404500       0.04129800
P        1.19330051       0.41439035       9.43432858       0.00000000 NULL       0.02158000      -0.01404500       0.04129800
P        1.19330051       6.42975261       3.01126895       0.00000000 NULL       0.02158000       0.01404500      -0.04129800
12
Lattice="3.1978009393034768 0.0 0.0 0.0 6.847787716378836 0.0 0.0 0.0 12.445499219793486" Properties=species:S:1:pos:R:3:initial_magmoms:R:1:castep_labels:S:1:forces:R:3 n_minim_iter=12 energy=-63.295656502803 stress="-6.586434815669928e-05 -0.0 -0.0 -0.0 -0.0004871026305182078 -0.0 -0.0 -0.0 -0.0007613478328152386" free_energy=-63.295656502803 pbc="T T T"
P        1.20021980       1.40482566       7.50274908       0.00000000 NULL      -0.01211300       0.00327500      -0.01128000
P        1.20021980       5.44296205       4.94275014       0.00000000 NULL      -0.01211300      -0.00327400       0.01128000
P        2.79912027       4.82871952      11.16549975       0.00000000 NULL      -0.01211300       0.00327700       0.01128000
P        2.79912027       2.01906820       1.27999947       0.00000000 NULL      -0.01211300      -0.00327700      -0.01128000
P        2.79521115      -0.20916532       7.87611299       0.00000000 NULL       0.02720200       0.01026100      -0.02749400
P        2.79521115       7.05695303       4.56938623       0.00000000 NULL       0.02720200      -0.01026100       0.02749400
P        1.19631068       3.21472854      10.79213584       0.00000000 NULL       0.02720200       0.01025900       0.02749500
P        1.19631068       3.63305917       1.65336338       0.00000000 NULL       0.02720200      -0.01025900      -0.02749500
P        2.80084093       3.83658090       9.23335009       0.00000000 NULL      -0.01508900      -0.00840500      -0.02975200
P        2.80084093       3.01120681       3.21214913       0.00000000 NULL      -0.01508900       0.00840500       0.02975200
P        1.20194046       0.41268705       9.43489874       0.00000000 NULL      -0.01508900      -0.00840600       0.02975000
P        1.20194046       6.43510067       3.01060048       0.00000000 NULL      -0.01508900       0.00840600      -0.02975000
12
Lattice="3.197215543513939 0.0 0.0 0.0 6.8634052254678934 0.0 0.0 0.0 12.441353569842594" Properties=species:S:1:pos:R:3:initial_magmoms:R:1:castep_labels:S:1:forces:R:3 n_minim_iter=13 energy=-63.296337795433 stress="9.611354123585757e-05 -0.0 0.0 -0.0 0.00020028538242289223 0.0 0.0 0.0 0.0002794398651251362" free_energy=-63.296337795433 pbc="T T T"
P        1.19889202       1.41731516       7.49971113       0.00000000 NULL       0.00480000      -0.00437500       0.00604700
P        1.19889202       5.44609006       4.94164244       0.00000000 NULL       0.00480000       0.00437500      -0.00604700
P        2.79749980       4.84901777      11.16231923       0.00000000 NULL       0.00480100      -0.00437700      -0.00604700
P        2.79749980       2.01438745       1.27903434       0.00000000 NULL       0.00480100       0.00437700       0.00604700
P        2.79896418      -0.19592685       7.86682610       0.00000000 NULL      -0.00935500      -0.00232900       0.00724600
P        2.79896418       7.05933208       4.57452747       0.00000000 NULL      -0.00935500       0.00232900      -0.00724600
P        1.20035640       3.23577576      10.79520425       0.00000000 NULL      -0.00935800      -0.00232700      -0.00724600
P        1.20035640       3.62762946       1.64614932       0.00000000 NULL      -0.00935800       0.00232700       0.00724600
P        2.79717225       3.85228978       9.23019825       0.00000000 NULL       0.00455700       0.00135500       0.00556200
P        2.79717225       3.01111544       3.21115532       0.00000000 NULL       0.00455700      -0.00135500      -0.00556200
P        1.19856448       0.42058717       9.43183211       0.00000000 NULL       0.00455500       0.00135600      -0.00556100
P        1.19856448       6.44281806       3.00952146       0.00000000 NULL       0.00455500      -0.00135600       0.00556100
12
Lattice="3.197223178733763 0.0 0.0 0.0 6.86131548288522 0.0 0.0 0.0 12.436764248379195" Properties=species:S:1:pos:R:3:initial_magmoms:R:1:castep_labels:S:1:forces:R:3 n_minim_iter=14 energy=-63.296477012939 stress="1.766685963079766e-05 0.0 -0.0 0.0 2.2725006164096577e-05 0.0 -0.0 0.0 1.9499521418224807e-05" free_energy=-63.296477012939 pbc="T T T"
P        1.19923736       1.41224048       7.49869151       0.00000000 NULL       0.00026700      -0.00030000       0.00047300
P        1.19923736       5.44907500       4.93807274       0.00000000 NULL       0.00026700       0.00030000      -0.00047400
P        2.79784895       4.84289822      11.15645487       0.00000000 NULL       0.00026600      -0.00030400      -0.00047500
P        2.79784895       2.01841726       1.28030938       0.00000000 NULL       0.00026600       0.00030400       0.00047500
P        2.79791978      -0.20116270       7.86638191       0.00000000 NULL      -0.00032200       0.00076100      -0.00014900
P        2.79791978       7.06247818       4.57038234       0.00000000 NULL      -0.00032200      -0.00076100       0.00014900
P        1.19930819       3.22949504      10.78876446       0.00000000 NULL      -0.00032100       0.00076500       0.00014800
P        1.19930819       3.63182044       1.64799979       0.00000000 NULL      -0.00032100      -0.00076500      -0.00014800
P        2.79788735       3.84648260       9.22473033       0.00000000 NULL       0.00005400      -0.00047100       0.00046700
P        2.79788735       3.01483288       3.21203392       0.00000000 NULL       0.00005400       0.00047100      -0.00046700
P        1.19927576       0.41582486       9.43041604       0.00000000 NULL       0.00005500      -0.00047000      -0.00046500
P        1.19927576       6.44549063       3.00634820       0.00000000 NULL       0.00005500       0.00047000       0.00046500
