16
Lattice="6.065549999999999 -2.2102237358740058e-15 -2.248151644178442e-15 1.1009981601085896 6.659845576966299 -1.5634824822008622e-16 1.4925460908209145 1.5760532543353434 9.130232422582361" Properties=species:S:1:pos:R:3:initial_magmoms:R:1:castep_labels:S:1 n_minim_iter=1 pbc="T T T"
P        5.77195208       4.73843179       7.87043930       0.00000000 NULL
P        5.37951269       1.43360477       5.74839616       0.00000000 NULL
P        5.30929510       5.30589818       0.86971855       0.00000000 NULL
P        1.12766461       3.36964445       1.68784216       0.00000000 NULL
P        3.38910112       2.57193808       2.67392187       0.00000000 NULL
P        7.63806182       5.68914559       8.07826165       0.00000000 NULL
P        4.47756853       5.88139976       3.22728699       0.00000000 NULL
P        1.62124704       1.90820752       0.05431027       0.00000000 NULL
P        6.05001474       6.26419134       6.57744774       0.00000000 NULL
P        4.56043937       2.19792318       7.76588079       0.00000000 NULL
P        2.45985148       1.91562504       5.44393669       0.00000000 NULL
P        2.53089239       5.29052393       5.90517138       0.00000000 NULL
P        5.72357270       3.29240920       5.04696149       0.00000000 NULL
P        3.43903546       5.01758007       1.70357629       0.00000000 NULL
P        1.27718514       5.36946193       0.13270793       0.00000000 NULL
P        2.70489688       6.66761874       0.72832594       0.00000000 NULL
16
Lattice="6.069306875476445 0.005336661967342474 0.0028066645479335175 1.1075396374002289 6.669636158045274 -0.002184960983273935 1.4990819652134841 1.5757602664966992 9.130162246500845" Properties=species:S:1:pos:R:3:initial_magmoms:R:1:castep_labels:S:1 n_minim_iter=2 pbc="T T T"
P        5.78316438       4.74632344       7.87125749       0.00000000 NULL
P        5.38672351       1.43800682       5.75021277       0.00000000 NULL
P        5.31772037       5.31731391       0.87006887       0.00000000 NULL
P        1.13222212       3.37439633       1.68704222       0.00000000 NULL
P        3.39455319       2.57730512       2.67442243       0.00000000 NULL
P        7.65159907       5.70001940       8.07914872       0.00000000 NULL
P        4.48711964       5.89187980       3.22700347       0.00000000 NULL
P        1.62391607       1.91239689       0.05419022       0.00000000 NULL
P        6.06234231       6.27514961       6.57747966       0.00000000 NULL
P        4.56881979       2.20170574       7.76696656       0.00000000 NULL
P        2.46559189       1.91816234       5.44419989       0.00000000 NULL
P        2.53978717       5.29738903       5.90419089       0.00000000 NULL
P        5.73242131       3.29987256       5.04817541       0.00000000 NULL
P        3.44628600       5.02622281       1.70328982       0.00000000 NULL
P        1.28273497       5.37757936       0.13110661       0.00000000 NULL
P        2.71285745       6.67865476       0.72686612       0.00000000 NULL
16
Lattice="6.149857816603102 0.12467443198507569 0.06417392323149587 1.2531913190767585 6.883871433290635 -0.048811707247682544 1.6422851385464479 1.5715047008555882 9.123345199768858" Properties=species:S:1:pos:R:3:initial_magmoms:R:1:castep_labels:S:1 n_minim_iter=3 pbc="T T T"
P        6.02876519       4.92223162       7.88515640       0.00000000 NULL
P        5.54361700       1.53763750       5.78665204       0.00000000 NULL
P        5.50294102       5.56922809       0.87815414       0.00000000 NULL
P        1.23314551       3.47894194       1.66914603       0.00000000 NULL
P        3.51391386       2.69648993       2.68413254       0.00000000 NULL
P        7.94793006       5.94220529       8.09459841       0.00000000 NULL
P        4.69743434       6.12330980       3.21984437       0.00000000 NULL
P        1.68274666       2.00477051       0.05179659       0.00000000 NULL
P        6.33305081       6.51825010       6.57528554       0.00000000 NULL
P        4.75183179       2.28765042       7.78637748       0.00000000 NULL
P        2.59133298       1.97564296       5.44694536       0.00000000 NULL
P        2.73588071       5.44934159       5.88007810       0.00000000 NULL
P        5.92591113       3.46633388       5.07224450       0.00000000 NULL
P        3.60594441       5.21639920       1.69694473       0.00000000 NULL
P        1.40610941       5.55536222       0.09695699       0.00000000 NULL
P        2.88916041       6.92108448       0.69559247       0.00000000 NULL
16
Lattice="6.130803644634981 0.230937042640493 0.11400531112883215 1.3664067685069168 6.96436791459089 -0.06060140140647327 1.7402166463067241 1.583574193929071 8.990868862658905" Properties=species:S:1:pos:R:3:initial_magmoms:R:1:castep_labels:S:1 n_minim_iter=4 pbc="T T T"
P        6.15573034       5.03702827       7.79950095       0.00000000 NULL
P        5.59806082       1.63024460       5.73781342       0.00000000 NULL
P        5.58802444       5.71028588       0.89374003       0.00000000 NULL
P        1.30591408       3.52409217       1.64346412       0.00000000 NULL
P        3.56619654       2.77307202       2.66294519       0.00000000 NULL
P        8.08957679       6.10026307       8.01071624       0.00000000 NULL
P        4.81526677       6.24648932       3.18928981       0.00000000 NULL
P        1.71050790       2.05473657       0.05639302       0.00000000 NULL
P        6.47916258       6.66031626       6.50284623       0.00000000 NULL
P        4.84050541       2.36333464       7.69789712       0.00000000 NULL
P        2.66232890       2.02069470       5.37678907       0.00000000 NULL
P        2.86722261       5.52430269       5.79549191       0.00000000 NULL
P        6.00886078       3.58225845       5.03182735       0.00000000 NULL
P        3.69478295       5.30971250       1.68745111       0.00000000 NULL
P        1.49798952       5.62591910       0.08859252       0.00000000 NULL
P        3.00429363       7.03016933       0.68460078       0.00000000 NULL
16
Lattice="6.062106239345689 0.6234851677736676 0.26249824234070873 1.7849465840367347 7.273314396181195 -0.05456516212087984 2.0488313113346663 1.7077413616131623 8.547939648399513" Properties=species:S:1:pos:R:3:initial_magmoms:R:1:castep_labels:S:1 n_minim_iter=5 pbc="T T T"
P        6.58002029       5.53284827       7.52355611       0.00000000 NULL
P        5.76758920       2.02540934       5.56102993       0.00000000 NULL
P        5.90017631       6.25127171       0.97030261       0.00000000 NULL
P        1.56687246       3.71257834       1.58059178       0.00000000 NULL
P        3.74355385       3.08242678       2.59928150       0.00000000 NULL
P        8.56394228       6.75846825       7.74212048       0.00000000 NULL
P        5.23314510       6.74003839       3.11471114       0.00000000 NULL
P        1.81331308       2.24226498       0.07836709       0.00000000 NULL
P        6.98217392       7.25015826       6.28321156       0.00000000 NULL
P        5.12422703       2.71264422       7.40194073       0.00000000 NULL
P        2.89379015       2.23879976       5.14248013       0.00000000 NULL
P        3.31817601       5.85996285       5.53761916       0.00000000 NULL
P        6.28902888       4.05875171       4.90184166       0.00000000 NULL
P        4.00914288       5.67102667       1.68326989       0.00000000 NULL
P        1.84185463       5.89987866       0.09589937       0.00000000 NULL
P        3.42408215       7.45207488       0.68558910       0.00000000 NULL
16
Lattice="5.983513140946107 0.7936834211010192 0.24958485898075075 1.9575547115592729 7.5483214238833085 0.08436378865521593 2.0542777255623434 2.001067746308394 8.59505749667049" Properties=species:S:1:pos:R:3:initial_magmoms:R:1:castep_labels:S:1 n_minim_iter=6 pbc="T T T"
P        6.61677065       6.01973840       7.62712570       0.00000000 NULL
P        5.72511539       2.36228698       5.57486959       0.00000000 NULL
P        5.98205193       6.62743860       1.08183527       0.00000000 NULL
P        1.65768063       3.90902893       1.66496710       0.00000000 NULL
P        3.75405938       3.33131600       2.65581056       0.00000000 NULL
P        8.59782582       7.33290378       7.85491982       0.00000000 NULL
P        5.33520531       7.15102347       3.23834161       0.00000000 NULL
P        1.83931248       2.36462001       0.10642417       0.00000000 NULL
P        7.06577344       7.77924258       6.40959904       0.00000000 NULL
P        5.11504056       3.08913910       7.46832882       0.00000000 NULL
P        2.90669088       2.50579735       5.17706835       0.00000000 NULL
P        3.41808311       6.25286162       5.64993176       0.00000000 NULL
P        6.30664575       4.44911199       4.97546547       0.00000000 NULL
P        4.08760776       5.95478360       1.79836271       0.00000000 NULL
P        1.99182368       6.14169263       0.20555051       0.00000000 NULL
P        3.57149191       7.79829014       0.81482936       0.00000000 NULL
16
Lattice="5.833284755773773 0.837078365441511 0.25841300543195855 1.977932493039578 7.544887926065411 0.10363773388148022 2.041875384998064 2.033295814355342 8.463247978458964" Properties=species:S:1:pos:R:3:initial_magmoms:R:1:castep_labels:S:1 n_minim_iter=7 pbc="T T T"
P        6.51884875       6.06858912       7.52937600       0.00000000 NULL
P        5.60905161       2.42105901       5.49383774       0.00000000 NULL
P        5.88943368       6.66495333       1.09472274       0.00000000 NULL
P        1.66223661       3.91581651       1.65414988       0.00000000 NULL
P        3.68722154       3.35877879       2.62982155       0.00000000 NULL
P        8.45755103       7.38993031       7.75911412       0.00000000 NULL
P        5.26932072       7.17920838       3.20994376       0.00000000 NULL
P        1.81078621       2.37754012       0.11151562       0.00000000 NULL
P        6.96813365       7.82408023       6.33140750       0.00000000 NULL
P        5.03206098       3.13908138       7.36881345       0.00000000 NULL
P        2.86889245       2.54278168       5.09696065       0.00000000 NULL
P        3.40029086       6.27894210       5.57548172       0.00000000 NULL
P        6.20107617       4.49622020       4.91960931       0.00000000 NULL
P        4.03654568       5.96244124       1.79792791       0.00000000 NULL
P        2.00662454       6.14478428       0.21797390       0.00000000 NULL
P        3.55251687       7.81397610       0.82155643       0.00000000 NULL
16
Lattice="5.839227585093558 0.8722460766940959 0.2645473200559197 2.0176246183018374 7.635170097341912 0.11463754770644721 2.061709340815234 2.075357682152831 8.521690021323831" Properties=species:S:1:pos:R:3:initial_magmoms:R:1:castep_labels:S:1 n_minim_iter=8 pbc="T T T"
P        6.55876660       6.16892617       7.58992368       0.00000000 NULL
P        5.62743936       2.48240573       5.53145797       0.00000000 NULL
P        5.92569864       6.76810820       1.11542871       0.00000000 NULL
P        1.68768526       3.96698616       1.67347115       0.00000000 NULL
P        3.70582528       3.41484997       2.65517891       0.00000000 NULL
P        8.50459296       7.51185048       7.82483972       0.00000000 NULL
P        5.31081477       7.28358644       3.24259417       0.00000000 NULL
P        1.82209789       2.41454773       0.11536092       0.00000000 NULL
P        7.01428517       7.94511686       6.38222208       0.00000000 NULL
P        5.05923148       3.20494279       7.42682967       0.00000000 NULL
P        2.88865409       2.59456666       5.13062430       0.00000000 NULL
P        3.43922875       6.36973009       5.61842229       0.00000000 NULL
P        6.23457731       4.57828878       4.96264171       0.00000000 NULL
P        4.06623496       6.03798660       1.82362373       0.00000000 NULL
P        2.04555475       6.22313642       0.22651305       0.00000000 NULL
P        3.59427591       7.91833426       0.83636549       0.00000000 NULL
16
Lattice="5.80114988911089 0.8943971563761685 0.268490264485993 2.0350343003302718 7.662643254215648 0.12430210853985832 2.0640304104642277 2.098626705828975 8.522182608327153" Properties=species:S:1:pos:R:3:initial_magmoms:R:1:castep_labels:S:1 n_minim_iter=9 pbc="T T T"
P        6.54454706       6.21434617       7.59811878       0.00000000 NULL
P        5.60167784       2.51840397       5.53182152       0.00000000 NULL
P        5.91151573       6.81083577       1.12785540       0.00000000 NULL
P        1.69647257       3.98461626       1.68065935       0.00000000 NULL
P        3.69370824       3.43979585       2.66199245       0.00000000 NULL
P        8.48119978       7.56549965       7.83630564       0.00000000 NULL
P        5.30556178       7.32397763       3.25199551       0.00000000 NULL
P        1.81783700       2.43022330       0.11847916       0.00000000 NULL
P        7.00116536       7.99539076       6.38961712       0.00000000 NULL
P        5.04548768       3.23973541       7.43355544       0.00000000 NULL
P        2.88447124       2.62254449       5.12936796       0.00000000 NULL
P        3.44618135       6.40611015       5.62320283       0.00000000 NULL
P        6.21699790       4.61668275       4.97137151       0.00000000 NULL
P        4.06087177       6.06309595       1.83594146       0.00000000 NULL
P        2.06246613       6.24937034       0.23320253       0.00000000 NULL
P        3.60206999       7.95546627       0.84512078       0.00000000 NULL
16
Lattice="5.707315589999842 0.9552808187087997 0.27819424644165686 2.084850788302365 7.7464739155368 0.14821357636676302 2.071367500837209 2.1611978453512233 8.545738734604633" Properties=species:S:1:pos:R:3:initial_magmoms:R:1:castep_labels:S:1 n_minim_iter=10 pbc="T T T"
P        6.51426492       6.34217951       7.63776775       0.00000000 NULL
P        5.53928568       2.61731874       5.54547148       0.00000000 NULL
P        5.88140937       6.93496079       1.16146033       0.00000000 NULL
P        1.72174588       4.03604325       1.70340978       0.00000000 NULL
P        3.66647624       3.51034877       2.68649056       0.00000000 NULL
P        8.42917605       7.71654823       7.88531794       0.00000000 NULL
P        5.29844940       7.44099703       3.28290270       0.00000000 NULL
P        1.80919692       2.47652362       0.12653455       0.00000000 NULL
P        6.97380314       8.13858976       6.42233200       0.00000000 NULL
P        5.01464417       3.33494465       7.47008850       0.00000000 NULL
P        2.87646457       2.70079941       5.13775823       0.00000000 NULL
P        3.46895611       6.51045186       5.64826555       0.00000000 NULL
P        6.17807390       4.72424242       5.00615875       0.00000000 NULL
P        4.05122172       6.13691183       1.87209423       0.00000000 NULL
P        2.11215543       6.32919798       0.24930378       0.00000000 NULL
P        3.62844103       8.06550583       0.86811886       0.00000000 NULL
16
Lattice="5.523500970939157 1.0628412826655331 0.2866567766917111 2.1695844930367834 7.891555141860618 0.18134378367497517 2.066822834023518 2.2606918732123154 8.64275878219499" Properties=species:S:1:pos:R:3:initial_magmoms:R:1:castep_labels:S:1 n_minim_iter=11 pbc="T T T"
P        6.43296718       6.55629435       7.74571801       0.00000000 NULL
P        5.40306340       2.79118767       5.59262800       0.00000000 NULL
P        5.80678895       7.15585517       1.21693987       0.00000000 NULL
P        1.75891036       4.11765610       1.75204235       0.00000000 NULL
P        3.60570096       3.62957846       2.74580590       0.00000000 NULL
P        8.30263358       7.96377250       8.01160430       0.00000000 NULL
P        5.26623182       7.63857487       3.34333852       0.00000000 NULL
P        1.78926387       2.56603685       0.13895351       0.00000000 NULL
P        6.89067446       8.37589755       6.49964010       0.00000000 NULL
P        4.93867852       3.49042639       7.57919468       0.00000000 NULL
P        2.84876543       2.84296281       5.17283458       0.00000000 NULL
P        3.49420840       6.68550858       5.71569005       0.00000000 NULL
P        6.08828908       4.90298294       5.09269656       0.00000000 NULL
P        4.01519494       6.25286933       1.94383411       0.00000000 NULL
P        2.20715244       6.47643428       0.26645092       0.00000000 NULL
P        3.66728997       8.25769090       0.90049749       0.00000000 NULL
16
Lattice="5.401802886790867 1.0322096104715472 0.3188721863663021 2.113861339602682 7.8403739603173985 0.17180369522422062 2.077410007736493 2.221262531617291 8.648468271555712" Properties=species:S:1:pos:R:3:initial_magmoms:R:1:castep_labels:S:1 n_minim_iter=12 pbc="T T T"
P        6.33789822       6.47368203       7.76808805       0.00000000 NULL
P        5.30982065       2.76953579       5.59880942       0.00000000 NULL
P        5.66216269       7.11137425       1.25146330       0.00000000 NULL
P        1.72591095       4.06136955       1.76241434       0.00000000 NULL
P        3.54099194       3.58585764       2.78512451       0.00000000 NULL
P        8.16134594       7.83600274       8.05144723       0.00000000 NULL
P        5.15578690       7.55743427       3.34535114       0.00000000 NULL
P        1.74430862       2.57748119       0.14923711       0.00000000 NULL
P        6.74430673       8.26611538       6.49141791       0.00000000 NULL
P        4.89152759       3.42241004       7.61375023       0.00000000 NULL
P        2.82310238       2.84624312       5.14407663       0.00000000 NULL
P        3.45018013       6.62283002       5.69844777       0.00000000 NULL
P        5.99940078       4.82278957       5.13283089       0.00000000 NULL
P        3.90779010       6.15465605       1.98138369       0.00000000 NULL
P        2.20221178       6.46366877       0.24537125       0.00000000 NULL
P        3.58522864       8.20667709       0.89100544       0.00000000 NULL
16
Lattice="5.474157211716933 1.0743680608121389 0.3285289885004417 2.1732839389798233 8.048991011486267 0.1659265239624981 2.120704511223062 2.268734419496548 8.78294105372438" Properties=species:S:1:pos:R:3:initial_magmoms:R:1:castep_labels:S:1 n_minim_iter=13 pbc="T T T"
P        6.45023831       6.64158475       7.88818543       0.00000000 NULL
P        5.38888853       2.85435216       5.68077300       0.00000000 NULL
P        5.75975522       7.32038980       1.27312554       0.00000000 NULL
P        1.76346843       4.15891447       1.79277364       0.00000000 NULL
P        3.60488229       3.68136446       2.84060833       0.00000000 NULL
P        8.30165292       8.03577420       8.17660858       0.00000000 NULL
P        5.25226363       7.75841879       3.39193935       0.00000000 NULL
P        1.77607165       2.66055781       0.15071863       0.00000000 NULL
P        6.85893622       8.47918321       6.58010020       0.00000000 NULL
P        4.98027565       3.50653000       7.73990305       0.00000000 NULL
P        2.87766637       2.93566769       5.20688078       0.00000000 NULL
P        3.52785439       6.79305358       5.77417116       0.00000000 NULL
P        6.10694804       4.95509494       5.21896516       0.00000000 NULL
P        3.97268758       6.30322372       2.02063076       0.00000000 NULL
P        2.27742310       6.65100540       0.23589919       0.00000000 NULL
P        3.66616311       8.43048048       0.89479463       0.00000000 NULL
16
Lattice="5.373293190001126 1.0440581417785044 0.3266605745643395 2.121695792390549 7.935779635541485 0.1730945484266099 2.0851968818496065 2.2460784467283808 8.670522511755669" Properties=species:S:1:pos:R:3:initial_magmoms:R:1:castep_labels:S:1 n_minim_iter=14 pbc="T T T"
P        6.32980301       6.54785536       7.79315063       0.00000000 NULL
P        5.28983432       2.81211951       5.60923586       0.00000000 NULL
P        5.64363033       7.20975675       1.26764968       0.00000000 NULL
P        1.72639490       4.09881174       1.77578961       0.00000000 NULL
P        3.53547063       3.62532259       2.81102082       0.00000000 NULL
P        8.14351498       7.91373569       8.07891247       0.00000000 NULL
P        5.14630083       7.64308183       3.35578111       0.00000000 NULL
P        1.73972122       2.62228990       0.15230316       0.00000000 NULL
P        6.72486362       8.35369455       6.50359424       0.00000000 NULL
P        4.89127181       3.45626634       7.64476202       0.00000000 NULL
P        2.82553505       2.90086644       5.13781714       0.00000000 NULL
P        3.45713952       6.70084495       5.70543718       0.00000000 NULL
P        5.99351126       4.87651064       5.15887654       0.00000000 NULL
P        3.89082631       6.20860313       2.00446050       0.00000000 NULL
P        2.23034033       6.55893134       0.23966729       0.00000000 NULL
P        3.58780020       8.30919174       0.89230147       0.00000000 NULL
16
Lattice="5.366608210091559 1.041240065519876 0.33002132826646513 2.117388169291671 7.943578718076582 0.17447423866269687 2.0878784826155456 2.2484068638412533 8.673839377879942" Properties=species:S:1:pos:R:3:initial_magmoms:R:1:castep_labels:S:1 n_minim_iter=15 pbc="T T T"
P        6.32561543       6.55165552       7.79882028       0.00000000 NULL
P        5.28542222       2.81436719       5.61220411       0.00000000 NULL
P        5.63476474       7.21650842       1.27278619       0.00000000 NULL
P        1.72378123       4.10025577       1.77888247       0.00000000 NULL
P        3.53250949       3.62648670       2.81707851       0.00000000 NULL
P        8.13649342       7.91529092       8.08582754       0.00000000 NULL
P        5.13961589       7.64771920       3.35944695       0.00000000 NULL
P        1.73688900       2.62643806       0.15350748       0.00000000 NULL
P        6.71663901       8.35732924       6.50743788       0.00000000 NULL
P        4.89088359       3.45678521       7.65113986       0.00000000 NULL
P        2.82553805       2.90712687       5.13648131       0.00000000 NULL
P        3.45534258       6.70660170       5.70708146       0.00000000 NULL
P        5.98981976       4.87771060       5.16518971       0.00000000 NULL
P        3.88349414       6.20961640       2.01011392       0.00000000 NULL
P        2.23092356       6.56828882       0.23963229       0.00000000 NULL
P        3.58238832       8.31705750       0.89407812       0.00000000 NULL
16
Lattice="5.302636694464528 1.0170815860941747 0.353266106461433 2.0792507764164676 7.988881080945394 0.18412118988818868 2.1008492341285567 2.261661713682033 8.676373426475063" Properties=species:S:1:pos:R:3:initial_magmoms:R:1:castep_labels:S:1 n_minim_iter=16 pbc="T T T"
P        6.27615936       6.56805350       7.82025510       0.00000000 NULL
P        5.23724272       2.82586952       5.61907290       0.00000000 NULL
P        5.55326150       7.25495913       1.30720351       0.00000000 NULL
P        1.69920268       4.10343775       1.79787147       0.00000000 NULL
P        3.50057602       3.62791699       2.85543517       0.00000000 NULL
P        8.06108626       7.91171034       8.11533724       0.00000000 NULL
P        5.07507813       7.66861339       3.37754021       0.00000000 NULL
P        1.71111385       2.65316843       0.16171562       0.00000000 NULL
P        6.63608544       8.36907372       6.51840337       0.00000000 NULL
P        4.87403894       3.45380513       7.67908284       0.00000000 NULL
P        2.81716403       2.94990907       5.11176842       0.00000000 NULL
P        3.43135567       6.73772580       5.70402740       0.00000000 NULL
P        5.94571000       4.87721756       5.19861220       0.00000000 NULL
P        3.81784288       6.20593934       2.04720061       0.00000000 NULL
P        2.22963006       6.62798731       0.23837533       0.00000000 NULL
P        3.53216929       8.36208439       0.90443939       0.00000000 NULL
16
Lattice="5.21625246057274 1.01068671513908 0.3596397977313052 2.056549168875054 8.288481380801743 0.15195358752960525 2.087525162098836 2.2855774220772638 8.712733780228017" Properties=species:S:1:pos:R:3:initial_magmoms:R:1:castep_labels:S:1 n_minim_iter=17 pbc="T T T"
P        6.18972873       6.71987537       7.83323863       0.00000000 NULL
P        5.13751133       2.91442292       5.60686385       0.00000000 NULL
P        5.44879544       7.55470319       1.31878941       0.00000000 NULL
P        1.65842206       4.17788798       1.84170985       0.00000000 NULL
P        3.46310837       3.69196926       2.94400391       0.00000000 NULL
P        7.94818367       8.04896176       8.13057913       0.00000000 NULL
P        4.98491680       7.88561043       3.36950221       0.00000000 NULL
P        1.68478298       2.79517336       0.15053865       0.00000000 NULL
P        6.49496638       8.55709605       6.47959630       0.00000000 NULL
P        4.85118819       3.49033750       7.75256699       0.00000000 NULL
P        2.80712075       3.13261606       5.01049324       0.00000000 NULL
P        3.39800389       6.92506105       5.65620506       0.00000000 NULL
P        5.89832242       4.98357270       5.24779975       0.00000000 NULL
P        3.70374243       6.31804246       2.10904072       0.00000000 NULL
P        2.32260194       6.95594658       0.17394177       0.00000000 NULL
P        3.49872806       8.68331957       0.86022323       0.00000000 NULL
16
Lattice="4.867761366288497 0.8743597709756666 0.30684770879858286 1.8436081413129701 7.705321302200582 0.13242125567242266 1.8868835737034633 2.1062422807313004 8.322005188873705" Properties=species:S:1:pos:R:3:initial_magmoms:R:1:castep_labels:S:1 n_minim_iter=18 pbc="T T T"
P        5.68670461       6.19547402       7.44600534       0.00000000 NULL
P        4.74786459       2.66365898       5.32918944       0.00000000 NULL
P        5.01280630       6.97811895       1.22675484       0.00000000 NULL
P        1.50027707       3.86949919       1.76108566       0.00000000 NULL
P        3.18949099       3.39402982       2.79486868       0.00000000 NULL
P        7.31705617       7.39910166       7.71867814       0.00000000 NULL
P        4.56407454       7.28483941       3.19111348       0.00000000 NULL
P        1.54949862       2.58920172       0.13035500       0.00000000 NULL
P        5.95736103       7.88767605       6.15448193       0.00000000 NULL
P        4.46995414       3.19647846       7.38758940       0.00000000 NULL
P        2.57534412       2.90022441       4.76481075       0.00000000 NULL
P        3.07862746       6.40817011       5.38627462       0.00000000 NULL
P        5.44165190       4.56574802       4.98432009       0.00000000 NULL
P        3.38992738       5.84812501       1.99747419       0.00000000 NULL
P        2.11725549       6.46014072       0.15092863       0.00000000 NULL
P        3.18944533       8.06234263       0.79751832       0.00000000 NULL
16
Lattice="5.155523493130734 0.9893803042230993 0.3210077776223043 2.022131863285493 8.139195507146294 0.11537084091873114 2.0088941815996986 2.2053821217358958 8.729562887804887" Properties=species:S:1:pos:R:3:initial_magmoms:R:1:castep_labels:S:1 n_minim_iter=19 pbc="T T T"
P        6.06160094       6.56191126       7.79785059       0.00000000 NULL
P        5.04016304       2.84381720       5.58656042       0.00000000 NULL
P        5.36671163       7.41498993       1.26579018       0.00000000 NULL
P        1.61904148       4.08783366       1.83831913       0.00000000 NULL
P        3.40577460       3.60600810       2.92485941       0.00000000 NULL
P        7.80571396       7.86358492       8.08423343       0.00000000 NULL
P        4.89311374       7.72296286       3.33233759       0.00000000 NULL
P        1.66225467       2.74777804       0.12790461       0.00000000 NULL
P        6.36670195       8.36342678       6.43417364       0.00000000 NULL
P        4.75342210       3.39552238       7.74612753       0.00000000 NULL
P        2.74753050       3.06796762       4.99344531       0.00000000 NULL
P        3.31337129       6.76541084       5.63252365       0.00000000 NULL
P        5.79512269       4.86922472       5.21933832       0.00000000 NULL
P        3.63547045       6.19270326       2.08089804       0.00000000 NULL
P        2.29959994       6.82852600       0.13643311       0.00000000 NULL
P        3.44958458       8.53693739       0.81489111       0.00000000 NULL
16
Lattice="5.145871981298579 0.9869092086555186 0.32383996414192967 2.017666742784389 8.121696044362162 0.10681099787306475 2.010140336807659 2.1882991649010717 8.699112429067407" Properties=species:S:1:pos:R:3:initial_magmoms:R:1:castep_labels:S:1 n_minim_iter=20 pbc="T T T"
P        6.05378021       6.53689778       7.76840941       0.00000000 NULL
P        5.03340758       2.83074940       5.56929298       0.00000000 NULL
P        5.35630649       7.39794891       1.25816608       0.00000000 NULL
P        1.61616217       4.07573221       1.82970463       0.00000000 NULL
P        3.40110394       3.59345957       2.91431978       0.00000000 NULL
P        7.79557704       7.83513135       8.05399484       0.00000000 NULL
P        4.88445003       7.70103530       3.31634556       0.00000000 NULL
P        1.65906228       2.74218749       0.12539946       0.00000000 NULL
P        6.35709227       8.33536239       6.40778435       0.00000000 NULL
P        4.74945234       3.37754286       7.72065951       0.00000000 NULL
P        2.74573295       3.05588588       4.97406015       0.00000000 NULL
P        3.30952081       6.74218878       5.60796612       0.00000000 NULL
P        5.78686476       4.85180623       5.20172209       0.00000000 NULL
P        3.62861671       6.17631322       2.07036652       0.00000000 NULL
P        2.29591996       6.81350217       0.12949634       0.00000000 NULL
P        3.44354609       8.51915472       0.80472320       0.00000000 NULL
