2
Lattice="3.4411199999999997 -3.7867172699744727e-16 -8.891246839099789e-17 1.323280953728604 3.4540759649867447 3.319015200301375e-16 0.5097242168261463 0.8763544919627443 3.7399657793618513" Properties=species:S:1:pos:R:3:initial_magmoms:R:1:castep_labels:S:1 n_minim_iter=1 pbc="T T T"
P        4.03278233       2.60819200       3.59106390       0.00000000 NULL
P        2.30730434       3.58295635       3.07516966       0.00000000 NULL
2
Lattice="3.442268110897928 0.00011043723563548428 9.745327968087716e-05 1.3238333122296868 3.454709696566666 -0.00037674797275168327 0.5100283253800189 0.8760723552722115 3.7394587560269104" Properties=species:S:1:pos:R:3:initial_magmoms:R:1:castep_labels:S:1 n_minim_iter=2 pbc="T T T"
P        4.03433457       2.60811998       3.59064103       0.00000000 NULL
P        2.30825492       3.58349220       3.07428748       0.00000000 NULL
2
Lattice="3.5440609463745383 0.01005987402902018 0.008805102863892503 1.372964592424916 3.510871821561592 -0.03357184168054304 0.5371043408726012 0.8512563532079032 3.6949260375441746" Properties=species:S:1:pos:R:3:initial_magmoms:R:1:castep_labels:S:1 n_minim_iter=3 pbc="T T T"
P        4.17220178       2.60173148       3.55369228       0.00000000 NULL
P        2.39270517       3.63149238       2.99662878       0.00000000 NULL
2
Lattice="3.5375548057633033 0.0183890952480202 0.022701187058424083 1.3788232404425624 3.511232346491115 -0.048188189163625356 0.5533647131807085 0.8301568062649001 3.6453653279592335" Properties=species:S:1:pos:R:3:initial_magmoms:R:1:castep_labels:S:1 n_minim_iter=4 pbc="T T T"
P        4.18929143       2.57696326       3.52204566       0.00000000 NULL
P        2.40553383       3.62798968       2.93512047       0.00000000 NULL
2
Lattice="3.4927935531476995 0.039034239201089366 0.057470850443740576 1.3823331972213817 3.4902320283118113 -0.06704188990462237 0.5897813221417051 0.7909809991333538 3.539698533056687" Properties=species:S:1:pos:R:3:initial_magmoms:R:1:castep_labels:S:1 n_minim_iter=5 pbc="T T T"
P        4.19653649       2.52458061       3.46498786       0.00000000 NULL
P        2.42031928       3.60434668       2.81552896       0.00000000 NULL
2
Lattice="3.427802989615566 0.09556580132788059 0.13653390418932648 1.4140855148130764 3.427916873647476 -0.05885070547602234 0.6804807280706803 0.7539779659890044 3.3734160948805854" Properties=species:S:1:pos:R:3:initial_magmoms:R:1:castep_labels:S:1 n_minim_iter=6 pbc="T T T"
P        4.25459113       2.47379171       3.42990575       0.00000000 NULL
P        2.49739572       3.56576234       2.64924995       0.00000000 NULL
2
Lattice="3.4858739770886813 0.13153552490698064 0.19229704472233236 1.472521834781335 3.4134218350453405 0.003772379310413974 0.7588490078128689 0.7967067764946137 3.4188549918997895" Properties=species:S:1:pos:R:3:initial_magmoms:R:1:castep_labels:S:1 n_minim_iter=7 pbc="T T T"
P        4.40405845       2.53767782       3.59307907       0.00000000 NULL
P        2.62766264       3.59684910       2.71027418       0.00000000 NULL
2
Lattice="3.4617393843769926 0.13877080013504714 0.20504270392767582 1.470503405724502 3.3668273296436424 0.02100299351624221 0.7709691921835716 0.7986005831567408 3.4222861192620653" Properties=species:S:1:pos:R:3:initial_magmoms:R:1:castep_labels:S:1 n_minim_iter=8 pbc="T T T"
P        4.39407712       2.52391875       3.62493287       0.00000000 NULL
P        2.63088594       3.55922990       2.72117769       0.00000000 NULL
2
Lattice="3.459022009446678 0.14768281355010315 0.21914865777041334 1.478404008100228 3.3375796433570892 0.03574681238413534 0.7881673008916774 0.8017213122722534 3.436708764308149" Properties=species:S:1:pos:R:3:initial_magmoms:R:1:castep_labels:S:1 n_minim_iter=9 pbc="T T T"
P        4.41090414       2.51963561       3.67070065       0.00000000 NULL
P        2.65241295       3.53935211       2.73587214       0.00000000 NULL
2
Lattice="3.4586913838877233 0.15195022468966796 0.22621254794249826 1.4825603443352078 3.322951763894409 0.042977296128640256 0.7968824705398969 0.8031134417953586 3.445911568528723" Properties=species:S:1:pos:R:3:initial_magmoms:R:1:castep_labels:S:1 n_minim_iter=10 pbc="T T T"
P        4.42018413       2.51702676       3.69614677       0.00000000 NULL
P        2.66388594       3.52937474       2.74402888       0.00000000 NULL
2
Lattice="3.455663480011476 0.16928118292961472 0.256196080161301 1.498792175476706 3.2578630285611725 0.07405676504513413 0.8334351195653197 0.8086430473828359 3.488678881038642" Properties=species:S:1:pos:R:3:initial_magmoms:R:1:castep_labels:S:1 n_minim_iter=11 pbc="T T T"
P        4.45692164       2.50355648       3.80955496       0.00000000 NULL
P        2.71083589       3.48389385       2.78037689       0.00000000 NULL
