6
Lattice="4.9948000000000015 -1.9393194383878e-16 -1.2466220383222415e-15 1.339839308965913 5.227289980386565 -1.9135250184804776e-16 1.3398393089659137 1.2159546091667655 5.083897611822633" Properties=species:S:1:pos:R:3:initial_magmoms:R:1:castep_labels:S:1 n_minim_iter=1 pbc="T T T"
P        2.82360071       2.59963180       4.14982751       0.00000000 NULL
P        2.82360071       4.64070914       1.56300111       0.00000000 NULL
P        5.07401355       2.83629202       4.13266631       0.00000000 NULL
P        5.07401355       4.67906981       1.79716137       0.00000000 NULL
P        1.33066404       3.29375309       0.06485782       0.00000000 NULL
P        1.33066404       0.82926043       3.18831352       0.00000000 NULL
6
Lattice="4.9932773950576905 0.0005941064515819209 0.00046876636892781415 1.3400526349745425 5.225626222556667 0.002087875588733122 1.3400526349745432 1.217598193461836 5.081793818758767" Properties=species:S:1:pos:R:3:initial_magmoms:R:1:castep_labels:S:1 n_minim_iter=2 pbc="T T T"
P        2.82356319       2.60057196       4.14886809       0.00000000 NULL
P        2.82356319       4.63999474       1.56413866       0.00000000 NULL
P        5.07317597       2.83745190       4.13193889       0.00000000 NULL
P        5.07317597       4.67863215       1.79845864       0.00000000 NULL
P        1.33054777       3.29295910       0.06612562       0.00000000 NULL
P        1.33054777       0.83030876       3.18724640       0.00000000 NULL
6
Lattice="4.938207227575756 0.02260975197846756 0.017839717628226014 1.348320631316901 5.165103288096203 0.07889476262316784 1.3483206313169016 1.2782195115133286 5.005064559089943" Properties=species:S:1:pos:R:3:initial_magmoms:R:1:castep_labels:S:1 n_minim_iter=3 pbc="T T T"
P        2.82288528       2.63554741       4.11414367       0.00000000 NULL
P        2.82288528       4.61435874       1.60623215       0.00000000 NULL
P        5.04350665       2.88057312       4.10582446       0.00000000 NULL
P        5.04350665       4.66326479       1.84647163       0.00000000 NULL
P        1.32665701       3.26412337       0.11289103       0.00000000 NULL
P        1.32665701       0.86908366       3.14832327       0.00000000 NULL
6
Lattice="4.924100677536362 0.045696291978082657 0.036055634149474734 1.3686977292918139 5.121426251158294 0.16385728782556774 1.3686977292918143 1.3506913824087499 4.942821951710743" Properties=species:S:1:pos:R:3:initial_magmoms:R:1:castep_labels:S:1 n_minim_iter=4 pbc="T T T"
P        2.84606597       2.68533263       4.09398075       0.00000000 NULL
P        2.84606597       4.60632978       1.65934193       0.00000000 NULL
P        5.05695224       2.94050622       4.09509350       0.00000000 NULL
P        5.05695224       4.66676964       1.90725687       0.00000000 NULL
P        1.33475995       3.24520869       0.16585102       0.00000000 NULL
P        1.33475995       0.91619100       3.11760807       0.00000000 NULL
6
Lattice="4.945696133483519 0.11524630062211308 0.09093250835985482 1.4472779535437925 5.030968733394558 0.41701742662340335 1.4472779535437932 1.5758650371707459 4.7959565589279585" Properties=species:S:1:pos:R:3:initial_magmoms:R:1:castep_labels:S:1 n_minim_iter=5 pbc="T T T"
P        2.95030085       2.85400810       4.06565247       0.00000000 NULL
P        2.95030085       4.61801531       1.82998001       0.00000000 NULL
P        5.16298193       3.14169461       4.09610754       0.00000000 NULL
P        5.16298193       4.71455562       2.10269048       0.00000000 NULL
P        1.37766158       3.20962535       0.32719100       0.00000000 NULL
P        1.37766158       1.06482791       3.04547047       0.00000000 NULL
6
Lattice="5.094140313369383 0.21869024146662272 0.17255262948168565 1.5953565198340336 5.029290645741685 0.6922447811362477 1.595356519834034 1.843152143327556 4.730302042460103" Properties=species:S:1:pos:R:3:initial_magmoms:R:1:castep_labels:S:1 n_minim_iter=6 pbc="T T T"
P        3.16486320       3.09256609       4.11737791       0.00000000 NULL
P        3.16486320       4.72381440       2.04996179       0.00000000 NULL
P        5.44086112       3.43394773       4.19121620       0.00000000 NULL
P        5.44086112       4.87503824       2.36480281       0.00000000 NULL
P        1.47668081       3.22226345       0.51761362       0.00000000 NULL
P        1.47668081       1.25296678       3.01346642       0.00000000 NULL
6
Lattice="5.0676714688518185 0.2766538183427474 0.21828748960650607 1.6489179089355774 5.0936260249720915 0.6709030023416875 1.6489179089355777 1.837361280863146 4.797837058968241" Properties=species:S:1:pos:R:3:initial_magmoms:R:1:castep_labels:S:1 n_minim_iter=7 pbc="T T T"
P        3.22269925       3.12068219       4.17841084       0.00000000 NULL
P        3.22269925       4.78971338       2.06310935       0.00000000 NULL
P        5.48481070       3.49382836       4.26836394       0.00000000 NULL
P        5.48481070       4.96399894       2.40509498       0.00000000 NULL
P        1.50373044       3.25762310       0.52600793       0.00000000 NULL
P        1.50373044       1.26935607       3.04590345       0.00000000 NULL
6
Lattice="5.058817770193218 0.31610866733600895 0.24941845317366293 1.6878342626089202 5.081405109850282 0.7112630585636129 1.6878342626089204 1.8737714123238458 4.776562961298398" Properties=species:S:1:pos:R:3:initial_magmoms:R:1:castep_labels:S:1 n_minim_iter=8 pbc="T T T"
P        3.26738240       3.15606194       4.18234056       0.00000000 NULL
P        3.26738240       4.80176522       2.09660446       0.00000000 NULL
P        5.52424680       3.54750000       4.28549084       0.00000000 NULL
P        5.52424680       4.99314094       2.45331033       0.00000000 NULL
P        1.52423696       3.25007793       0.56065961       0.00000000 NULL
P        1.52423696       1.30130206       3.03050469       0.00000000 NULL
6
Lattice="5.056079001502874 0.36038136861612924 0.2843508350161693 1.7334330329013696 5.092059810187044 0.7339095683595235 1.7334330329013699 1.898275155091499 4.781657432377827" Properties=species:S:1:pos:R:3:initial_magmoms:R:1:castep_labels:S:1 n_minim_iter=9 pbc="T T T"
P        3.32160580       3.18942037       4.20336236       0.00000000 NULL
P        3.32160580       4.82997009       2.12415780       0.00000000 NULL
P        5.57627596       3.60333278       4.32051773       0.00000000 NULL
P        5.57627596       5.04019462       2.49946369       0.00000000 NULL
P        1.54868136       3.25501060       0.58789206       0.00000000 NULL
P        1.54868136       1.32893492       3.02896733       0.00000000 NULL
6
Lattice="5.048008095493914 0.5275353726912014 0.4162399524185495 1.9062024598160314 5.1247616829649125 0.8329710349355239 1.9062024598160316 2.0022262173667595 4.79041889887681" Properties=species:S:1:pos:R:3:initial_magmoms:R:1:castep_labels:S:1 n_minim_iter=10 pbc="T T T"
P        3.53061989       3.32115441       4.27955772       0.00000000 NULL
P        3.53061989       4.93471882       2.23455388       0.00000000 NULL
P        5.77683907       3.82232409       4.44930148       0.00000000 NULL
P        5.77683907       5.21638667       2.68249050       0.00000000 NULL
P        1.63675065       3.26427825       0.70326654       0.00000000 NULL
P        1.63675065       1.44330032       3.01114273       0.00000000 NULL
