9
Lattice="4.217909999999999 -2.9342434529418023e-16 1.0727897438258132e-15 1.8887849963408285 5.894804071188269 -3.8939738026369046e-15 2.057764343539613 2.578323548507146 8.247878324622063" Properties=species:S:1:pos:R:3:initial_magmoms:R:1:castep_labels:S:1 n_minim_iter=1 pbc="T T T"
P        2.61084105       1.07700245       2.78533985       0.00000000 NULL
P        4.03087384       7.53455565       6.51157374       0.00000000 NULL
P        4.38355838       3.03300277       7.22515956       0.00000000 NULL
P        7.23164032       6.91310886       8.13127147       0.00000000 NULL
P        4.09593698       5.44885882       1.20161277       0.00000000 NULL
P        6.05952508       5.69408475       4.57866037       0.00000000 NULL
P        1.47719723       3.10020089       1.37738331       0.00000000 NULL
P        2.16356589       2.83565898       3.64621628       0.00000000 NULL
P        3.03780504       4.31445885       5.95359323       0.00000000 NULL
9
Lattice="4.217492385863575 -0.0009933958290801435 -0.001044149935715006 1.8872096528430604 5.896952333362368 -0.0010218896862570265 2.0549115873260324 2.578197513888059 8.249846903645054" Properties=species:S:1:pos:R:3:initial_magmoms:R:1:castep_labels:S:1 n_minim_iter=2 pbc="T T T"
P        2.60979780       1.07639880       2.78547238       0.00000000 NULL
P        4.02721213       7.53646001       6.51182626       0.00000000 NULL
P        4.38067434       3.03255970       7.22622436       0.00000000 NULL
P        7.22726515       6.91360060       8.13141362       0.00000000 NULL
P        4.09374594       5.45029738       1.20056468       0.00000000 NULL
P        6.05642649       5.69474720       4.57808700       0.00000000 NULL
P        1.47605715       3.10087913       1.37743023       0.00000000 NULL
P        2.16168545       2.83632048       3.64666647       0.00000000 NULL
P        3.03494452       4.31508440       5.95434069       0.00000000 NULL
9
Lattice="4.1992775384449255 -0.043060362930969355 -0.04519165561808066 1.8202616953357214 5.987833789617485 -0.044435962174890084 1.9339826508058302 2.572581288618118 8.33088004402509" Properties=species:S:1:pos:R:3:initial_magmoms:R:1:castep_labels:S:1 n_minim_iter=3 pbc="T T T"
P        2.56542790       1.05055138       2.79029273       0.00000000 NULL
P        3.87173051       7.61692056       6.52041446       0.00000000 NULL
P        4.25810130       3.01342423       7.26932425       0.00000000 NULL
P        7.04130176       6.93405331       8.13510558       0.00000000 NULL
P        4.00043151       5.51125111       1.15581622       0.00000000 NULL
P        5.92454223       5.72261204       4.55243249       0.00000000 NULL
P        1.42758735       3.12926553       1.37911851       0.00000000 NULL
P        2.08172042       2.86440625       3.66466625       0.00000000 NULL
P        2.91354654       4.34138361       5.98423363       0.00000000 NULL
9
Lattice="4.142328695462544 -0.06781737133012126 -0.07160768196775383 1.7601604048658344 5.998379214047742 -0.0779216690873586 1.839410920400676 2.5396632908679875 8.248923816884972" Properties=species:S:1:pos:R:3:initial_magmoms:R:1:castep_labels:S:1 n_minim_iter=4 pbc="T T T"
P        2.51231155       1.02326317       2.74955464       0.00000000 NULL
P        3.73569615       7.60310969       6.41599130       0.00000000 NULL
P        4.13723770       2.96849258       7.18070401       0.00000000 NULL
P        6.85179361       6.88490703       8.00411688       0.00000000 NULL
P        3.89942381       5.50644368       1.10186987       0.00000000 NULL
P        5.77978847       5.69182396       4.45827929       0.00000000 NULL
P        1.38374355       3.11941513       1.35695500       0.00000000 NULL
P        2.00969582       2.85706193       3.61484130       0.00000000 NULL
P        2.80707193       4.31785227       5.90332912       0.00000000 NULL
9
Lattice="4.045980299546931 -0.12213051637033527 -0.11452144964638859 1.6411093219529653 6.009276694715358 -0.1506825192559271 1.6752901381204592 2.4536526950690334 8.10640227904283" Properties=species:S:1:pos:R:3:initial_magmoms:R:1:castep_labels:S:1 n_minim_iter=5 pbc="T T T"
P        2.42075110       0.96124797       2.68043081       0.00000000 NULL
P        3.48657806       7.54785364       6.22026970       0.00000000 NULL
P        3.92655940       2.85771831       7.02661186       0.00000000 NULL
P        6.51431514       6.75450706       7.76996969       0.00000000 NULL
P        3.71240695       5.48197511       0.99667723       0.00000000 NULL
P        5.51970984       5.60839227       4.28659437       0.00000000 NULL
P        1.30088032       3.09193797       1.31100570       0.00000000 NULL
P        1.88134948       2.82794742       3.52427067       0.00000000 NULL
P        2.61688012       4.25147595       5.75703556       0.00000000 NULL
9
Lattice="3.9342644241657982 -0.209265799921878 -0.15722563746802226 1.4693055865729452 6.00209196254639 -0.25346701976247327 1.4840184316217364 2.3080093320495725 7.922084111843726" Properties=species:S:1:pos:R:3:initial_magmoms:R:1:castep_labels:S:1 n_minim_iter=6 pbc="T T T"
P        2.31258377       0.86395774       2.59886803       0.00000000 NULL
P        3.16523046       7.42425528       5.96064037       0.00000000 NULL
P        3.67581400       2.67349677       6.83288544       0.00000000 NULL
P        6.09753047       6.51942737       7.47638914       0.00000000 NULL
P        3.46692995       5.41766109       0.85834513       0.00000000 NULL
P        5.19274831       5.45338083       4.06983408       0.00000000 NULL
P        1.18881787       3.04019833       1.24338707       0.00000000 NULL
P        1.72344726       2.76399077       3.40645806       0.00000000 NULL
P        2.38232120       4.12979788       5.56668430       0.00000000 NULL
9
Lattice="3.8588125561654043 -0.2923983771581799 -0.18641836305534845 1.3193349587108165 6.0070595873702235 -0.32966482228946453 1.3393062652242878 2.197583931334769 7.798051281851362" Properties=species:S:1:pos:R:3:initial_magmoms:R:1:castep_labels:S:1 n_minim_iter=7 pbc="T T T"
P        2.23351905       0.78451456       2.54787466       0.00000000 NULL
P        2.90397994       7.33584824       5.77603351       0.00000000 NULL
P        3.48750576       2.52684285       6.70129846       0.00000000 NULL
P        5.77613166       6.33082537       7.27699095       0.00000000 NULL
P        3.26913631       5.36850091       0.75683807       0.00000000 NULL
P        4.93866335       5.33078142       3.91883089       0.00000000 NULL
P        1.09568332       3.00443123       1.19237176       0.00000000 NULL
P        1.60020031       2.71503920       3.32560541       0.00000000 NULL
P        2.19886139       4.04027227       5.43434878       0.00000000 NULL
9
Lattice="3.712083015303593 -0.4582718114673135 -0.24580393694283142 1.0218103668709628 6.074010614935975 -0.4382165473380607 1.0502021385970768 2.063757605761806 7.5893257747259515" Properties=species:S:1:pos:R:3:initial_magmoms:R:1:castep_labels:S:1 n_minim_iter=8 pbc="T T T"
P        2.07642220       0.66041141       2.46962425       0.00000000 NULL
P        2.38142327       7.27849452       5.47311235       0.00000000 NULL
P        3.11371184       2.32020970       6.47725875       0.00000000 NULL
P        5.13946997       6.07615369       6.95446240       0.00000000 NULL
P        2.87872233       5.32961110       0.59094189       0.00000000 NULL
P        4.43642648       5.17874554       3.67145747       0.00000000 NULL
P        0.91278690       2.97218744       1.11209974       0.00000000 NULL
P        1.35437401       2.67164723       3.19509344       0.00000000 NULL
P        1.83547800       3.95100732       5.21410427       0.00000000 NULL
9
Lattice="3.6404850578563046 -0.49462781476651874 -0.27211664472066555 0.9389388347483302 6.2230390709426455 -0.39873315176201657 0.9415954410895078 2.1900556858915037 7.521627140360795" Properties=species:S:1:pos:R:3:initial_magmoms:R:1:castep_labels:S:1 n_minim_iter=9 pbc="T T T"
P        2.01136905       0.69635733       2.46475193       0.00000000 NULL
P        2.20032086       7.51160561       5.42663600       0.00000000 NULL
P        2.97403585       2.43745990       6.41194954       0.00000000 NULL
P        4.90679816       6.25733005       6.91263290       0.00000000 NULL
P        2.74746144       5.45285775       0.58498384       0.00000000 NULL
P        4.25547525       5.33733246       3.64273998       0.00000000 NULL
P        0.85935628       3.04034228       1.11265291       0.00000000 NULL
P        1.26741588       2.77556346       3.17963371       0.00000000 NULL
P        1.70823365       4.10764770       5.16268149       0.00000000 NULL
9
Lattice="3.5751021336648234 -0.5149378065057767 -0.2745944373403796 0.8812757484757121 6.233179685637842 -0.4071964367092264 0.8924372295368777 2.178271391043019 7.396155523024454" Properties=species:S:1:pos:R:3:initial_magmoms:R:1:castep_labels:S:1 n_minim_iter=10 pbc="T T T"
P        1.96592836       0.68227315       2.43163833       0.00000000 NULL
P        2.09221738       7.50651548       5.30786552       0.00000000 NULL
P        2.89095875       2.42145807       6.30088767       0.00000000 NULL
P        4.75690707       6.22715271       6.78990613       0.00000000 NULL
P        2.65448247       5.45016960       0.55289353       0.00000000 NULL
P        4.13084789       5.32903575       3.56605735       0.00000000 NULL
P        0.82455573       3.03196973       1.08423122       0.00000000 NULL
P        1.21719003       2.77284401       3.12624082       0.00000000 NULL
P        1.63672736       4.10481383       5.06074168       0.00000000 NULL
9
Lattice="3.558590160441111 -0.52802064720709 -0.2738065505473121 0.8555975453102247 6.287266397459783 -0.41211690229206355 0.8779250299878102 2.1907298840360507 7.399598452325722" Properties=species:S:1:pos:R:3:initial_magmoms:R:1:castep_labels:S:1 n_minim_iter=11 pbc="T T T"
P        1.95365190       0.68197127       2.43924991       0.00000000 NULL
P        2.05109098       7.56349177       5.29885814       0.00000000 NULL
P        2.86826944       2.43541292       6.30416918       0.00000000 NULL
P        4.70912824       6.26248412       6.79527751       0.00000000 NULL
P        2.62022085       5.49204999       0.54727234       0.00000000 NULL
P        4.08978083       5.36858870       3.56558789       0.00000000 NULL
P        0.81150506       3.05196702       1.08070010       0.00000000 NULL
P        1.20001481       2.79351283       3.12983460       0.00000000 NULL
P        1.61259955       4.13713379       5.05726537       0.00000000 NULL
9
Lattice="3.5352777048680935 -0.536988368643309 -0.2733537679373388 0.8326252255723271 6.3120627663520255 -0.4096225883947148 0.8619553361538058 2.2021632677773795 7.375205128173335" Properties=species:S:1:pos:R:3:initial_magmoms:R:1:castep_labels:S:1 n_minim_iter=12 pbc="T T T"
P        1.93773008       0.68200081       2.43649476       0.00000000 NULL
P        2.01041417       7.59279389       5.27633841       0.00000000 NULL
P        2.84054791       2.44648982       6.28369028       0.00000000 NULL
P        4.65586096       6.27992339       6.77766078       0.00000000 NULL
P        2.58500346       5.51070551       0.54416329       0.00000000 NULL
P        4.04431706       5.38914735       3.55485816       0.00000000 NULL
P        0.79858427       3.06011699       1.07572850       0.00000000 NULL
P        1.18196125       2.80537137       3.12269727       0.00000000 NULL
P        1.58739975       4.15682314       5.03726611       0.00000000 NULL
9
Lattice="3.4791240272438424 -0.5607466021396533 -0.2705281864941873 0.774275864081792 6.375030726063144 -0.39995362923231814 0.8255623366519332 2.234525579671965 7.325153663800744" Properties=species:S:1:pos:R:3:initial_magmoms:R:1:castep_labels:S:1 n_minim_iter=13 pbc="T T T"
P        1.89978785       0.68250788       2.43384566       0.00000000 NULL
P        1.91100995       7.66942849       5.23238603       0.00000000 NULL
P        2.77532880       2.47713989       6.24325377       0.00000000 NULL
P        4.52756114       6.32701757       6.74815731       0.00000000 NULL
P        2.49796168       5.55813653       0.54224869       0.00000000 NULL
P        3.93365752       5.44227921       3.53797377       0.00000000 NULL
P        0.76655738       3.08149366       1.06665517       0.00000000 NULL
P        1.13844106       2.83655826       3.11110342       0.00000000 NULL
P        1.52705187       4.20904650       4.99706196       0.00000000 NULL
9
Lattice="3.4444049301869395 -0.5786950121582423 -0.2655908258939921 0.7336445395498025 6.410153761934438 -0.3869002241475961 0.8073073765655968 2.259817590977088 7.3053034254190115" Properties=species:S:1:pos:R:3:initial_magmoms:R:1:castep_labels:S:1 n_minim_iter=14 pbc="T T T"
P        1.87742530       0.68241773       2.43780275       0.00000000 NULL
P        1.84825904       7.71623427       5.22078684       0.00000000 NULL
P        2.73834309       2.49903896       6.23043226       0.00000000 NULL
P        4.44920625       6.35599522       6.74911415       0.00000000 NULL
P        2.44094333       5.58333856       0.55073629       0.00000000 NULL
P        3.86421206       5.47278506       3.54147181       0.00000000 NULL
P        0.74554825       3.09348047       1.06586133       0.00000000 NULL
P        1.11197199       2.85632635       3.11193342       0.00000000 NULL
P        1.49107374       4.24334852       4.98353801       0.00000000 NULL
9
Lattice="3.4096360335060703 -0.5993455437451133 -0.25804582343556215 0.6892145237219538 6.4410712179322624 -0.36860087617181575 0.7924754608780995 2.2881872867002686 7.28959639415554" Properties=species:S:1:pos:R:3:initial_magmoms:R:1:castep_labels:S:1 n_minim_iter=15 pbc="T T T"
P        1.85602287       0.68148930       2.44475217       0.00000000 NULL
P        1.78446199       7.76062882       5.21738066       0.00000000 NULL
P        2.70393740       2.52214334       6.22325653       0.00000000 NULL
P        4.37138917       6.38281586       6.76071520       0.00000000 NULL
P        2.38115500       5.60396008       0.56580357       0.00000000 NULL
P        3.79381002       5.49979987       3.55321375       0.00000000 NULL
P        0.72357712       3.10359945       1.06808065       0.00000000 NULL
P        1.08581334       2.87576079       3.11682112       0.00000000 NULL
P        1.45603526       4.27799201       4.97543697       0.00000000 NULL
9
Lattice="3.401669642830146 -0.6053531946417128 -0.25545828044366836 0.6772510811290083 6.448422856784867 -0.3627238925487134 0.7899763836809451 2.2962502897721015 7.287679426078298" Properties=species:S:1:pos:R:3:initial_magmoms:R:1:castep_labels:S:1 n_minim_iter=16 pbc="T T T"
P        1.85135446       0.68109814       2.44754925       0.00000000 NULL
P        1.76878421       7.77192923       5.21938399       0.00000000 NULL
P        2.69668366       2.52837250       6.22375222       0.00000000 NULL
P        4.35313044       6.38958098       6.76725870       0.00000000 NULL
P        2.36602354       5.60847717       0.57138676       0.00000000 NULL
P        3.77686362       5.50606353       3.55875834       0.00000000 NULL
P        0.71800157       3.10598089       1.06959418       0.00000000 NULL
P        1.07965732       2.88080650       3.11944775       0.00000000 NULL
P        1.44792811       4.28710251       4.97550950       0.00000000 NULL
9
Lattice="3.356034586208606 -0.6415483976530713 -0.23971011661179825 0.6062304950276534 6.49027787197094 -0.32645239753483135 0.776381926360397 2.344871418248393 7.277197965346411" Properties=species:S:1:pos:R:3:initial_magmoms:R:1:castep_labels:S:1 n_minim_iter=17 pbc="T T T"
P        1.82479996       0.67867969       2.46443171       0.00000000 NULL
P        1.67724102       7.83779697       5.23349597       0.00000000 NULL
P        2.65534435       2.56555200       6.22790257       0.00000000 NULL
P        4.24744973       6.42904660       6.80825143       0.00000000 NULL
P        2.27731369       5.63354598       0.60616873       0.00000000 NULL
P        3.67831351       5.54173695       3.59345678       0.00000000 NULL
P        0.68524014       3.11931978       1.07944845       0.00000000 NULL
P        1.04395829       2.91052949       3.13574534       0.00000000 NULL
P        1.40088664       4.34085627       4.97741950       0.00000000 NULL
9
Lattice="3.3163875780580208 -0.6834689448442148 -0.22066131505229453 0.5298898224212146 6.524546237309808 -0.28128652008281024 0.768663237199917 2.3988792226389655 7.274981245132549" Properties=species:S:1:pos:R:3:initial_magmoms:R:1:castep_labels:S:1 n_minim_iter=18 pbc="T T T"
P        1.80252927       0.67467353       2.48565206       0.00000000 NULL
P        1.58698865       7.89954143       5.26286361       0.00000000 NULL
P        2.62118294       2.60432865       6.24213504       0.00000000 NULL
P        4.14865612       6.46475768       6.86740097       0.00000000 NULL
P        2.18814159       5.64955809       0.65195949       0.00000000 NULL
P        3.58433091       5.56907303       3.64151382       0.00000000 NULL
P        0.65182762       3.12906669       1.09494314       0.00000000 NULL
P        1.01018666       2.93963118       3.15861958       0.00000000 NULL
P        1.35681780       4.39451201       4.98975930       0.00000000 NULL
9
Lattice="3.2825909837252936 -0.7296159804869928 -0.20130746093040924 0.45026217890027725 6.558665120793319 -0.23181489492706983 0.7618116966187283 2.4574208845545726 7.283009039867697" Properties=species:S:1:pos:R:3:initial_magmoms:R:1:castep_labels:S:1 n_minim_iter=19 pbc="T T T"
P        1.78278542       0.66996436       2.51042369       0.00000000 NULL
P        1.49632458       7.96367401       5.30402487       0.00000000 NULL
P        2.58968399       2.64622118       6.26598003       0.00000000 NULL
P        4.05298192       6.50253028       6.94086010       0.00000000 NULL
P        2.09951966       5.66344995       0.70359703       0.00000000 NULL
P        3.49371306       5.59398860       3.69802866       0.00000000 NULL
P        0.61779388       3.13832343       1.11416323       0.00000000 NULL
P        0.97670850       2.97026729       3.18712441       0.00000000 NULL
P        1.31290014       4.45074139       5.01149773       0.00000000 NULL
9
Lattice="3.2143070128106426 -0.8426005734730239 -0.16261037831931238 0.2617812064590039 6.632480010940245 -0.10945163904456622 0.7351031304322496 2.6036773537382034 7.299312073700516" Properties=species:S:1:pos:R:3:initial_magmoms:R:1:castep_labels:S:1 n_minim_iter=20 pbc="T T T"
P        1.73737300       0.65923795       2.56456887       0.00000000 NULL
P        1.27843899       8.11200207       5.40191938       0.00000000 NULL
P        2.50901036       2.75493836       6.31722559       0.00000000 NULL
P        3.82530604       6.59461231       7.11187364       0.00000000 NULL
P        1.89496153       5.68840046       0.82747795       0.00000000 NULL
P        3.28430734       5.64580953       3.82646753       0.00000000 NULL
P        0.53737813       3.15495168       1.16040764       0.00000000 NULL
P        0.89446839       3.04446363       3.25357503       0.00000000 NULL
P        1.20284010       4.58579546       5.06238483       0.00000000 NULL
9
Lattice="3.226273203785571 -0.9272751906095298 -0.18326446839666197 0.1488013856838354 6.748151201862356 -0.05710263995752843 0.6487932328594115 2.7157321252263906 7.357954598591456" Properties=species:S:1:pos:R:3:initial_magmoms:R:1:castep_labels:S:1 n_minim_iter=21 pbc="T T T"
P        1.70821028       0.65052390       2.60237549       0.00000000 NULL
P        1.10709630       8.27153707       5.45453088       0.00000000 NULL
P        2.42233497       2.87301851       6.36288897       0.00000000 NULL
P        3.65883427       6.71451223       7.22769043       0.00000000 NULL
P        1.78888068       5.75807103       0.87109853       0.00000000 NULL
P        3.16843683       5.72538663       3.87164678       0.00000000 NULL
P        0.48866944       3.17770681       1.17675948       0.00000000 NULL
P        0.81921420       3.12187487       3.31036306       0.00000000 NULL
P        1.09716531       4.71677042       5.10393481       0.00000000 NULL
9
Lattice="3.200454109730942 -0.9339793733973397 -0.19079746651870003 0.12787003308004133 6.666787021889124 -0.022294056842608323 0.6173685662796136 2.731609909038186 7.224143355736714" Properties=species:S:1:pos:R:3:initial_magmoms:R:1:castep_labels:S:1 n_minim_iter=22 pbc="T T T"
P        1.68502404       0.64847998       2.55463431       0.00000000 NULL
P        1.06031526       8.20085332       5.38155838       0.00000000 NULL
P        2.37547470       2.88030774       6.24627337       0.00000000 NULL
P        3.58740739       6.66789831       7.11593473       0.00000000 NULL
P        1.75308592       5.68787081       0.87903990       0.00000000 NULL
P        3.11531840       5.66826991       3.81479768       0.00000000 NULL
P        0.47437201       3.13945541       1.16573806       0.00000000 NULL
P        0.79351818       3.10540713       3.26165630       0.00000000 NULL
P        1.06206608       4.69222569       5.02052102       0.00000000 NULL
9
Lattice="3.2091764689266262 -0.9449138184385057 -0.1962279823946403 0.11649431620525193 6.701373063321236 -0.01944259496722462 0.6043208218801942 2.750936820261051 7.259754274644598" Properties=species:S:1:pos:R:3:initial_magmoms:R:1:castep_labels:S:1 n_minim_iter=23 pbc="T T T"
P        1.68411340       0.64916305       2.56756470       0.00000000 NULL
P        1.04185280       8.24254510       5.40592868       0.00000000 NULL
P        2.36612208       2.90411223       6.27446936       0.00000000 NULL
P        3.57205327       6.70350275       7.15325093       0.00000000 NULL
P        1.74533939       5.71569379       0.88473167       0.00000000 NULL
P        3.10775211       5.69558279       3.83038921       0.00000000 NULL
P        0.47040100       3.14990710       1.16968334       0.00000000 NULL
P        0.78458253       3.12423407       3.28121635       0.00000000 NULL
P        1.05004696       4.71975814       5.04404085       0.00000000 NULL
9
Lattice="3.2090367227445102 -0.9534398920047651 -0.20162588940899728 0.1045159943203105 6.705824747803987 -0.00971736812480454 0.588485533496863 2.767383721782816 7.252804683154697" Properties=species:S:1:pos:R:3:initial_magmoms:R:1:castep_labels:S:1 n_minim_iter=24 pbc="T T T"
P        1.67825992       0.64922976       2.56496047       0.00000000 NULL
P        1.01937424       8.25414111       5.40549997       0.00000000 NULL
P        2.34915998       2.92164002       6.26646186       0.00000000 NULL
P        3.54576319       6.71677406       7.15216593       0.00000000 NULL
P        1.73227370       5.71857584       0.89030176       0.00000000 NULL
P        3.09079407       5.70098941       3.82755062       0.00000000 NULL
P        0.46465850       3.14820013       1.16966399       0.00000000 NULL
P        0.77279425       3.13319282       3.28303302       0.00000000 NULL
P        1.03427053       4.73216934       5.04068684       0.00000000 NULL
9
Lattice="3.211101617407364 -1.035469219466325 -0.25348571323719943 -0.009200673749661584 6.758176172706778 0.0843950119580776 0.437941165095616 2.930501986491237 7.200376197725548" Properties=species:S:1:pos:R:3:initial_magmoms:R:1:castep_labels:S:1 n_minim_iter=25 pbc="T T T"
P        1.62462825       0.65151770       2.54352826       0.00000000 NULL
P        0.80813516       8.37716484       5.41313529       0.00000000 NULL
P        2.18822403       3.09670035       6.20297716       0.00000000 NULL
P        3.29788837       6.85747101       7.15612231       0.00000000 NULL
P        1.60928402       5.75714649       0.94746159       0.00000000 NULL
P        2.93253912       5.76262655       3.80846921       0.00000000 NULL
P        0.41209195       3.13466836       1.17079631       0.00000000 NULL
P        0.65998385       3.22642919       3.30790698       0.00000000 NULL
P        0.88564031       4.85677267       5.01982071       0.00000000 NULL
9
Lattice="3.2303146216005514 -1.0872655901733752 -0.2901618035773467 -0.07298587136221558 6.7744257407670565 0.21993692361307224 0.3439344418823297 3.1351115727814314 7.097076266360985" Properties=species:S:1:pos:R:3:initial_magmoms:R:1:castep_labels:S:1 n_minim_iter=26 pbc="T T T"
P        1.60805007       0.66554558       2.50063849       0.00000000 NULL
P        0.69467649       8.50322989       5.42108136       0.00000000 NULL
P        2.09060082       3.33319034       6.10278422       0.00000000 NULL
P        3.15214419       7.03620227       7.15775648       0.00000000 NULL
P        1.53778386       5.81579675       1.05871908       0.00000000 NULL
P        2.85555371       5.84994839       3.79602757       0.00000000 NULL
P        0.40102223       3.09153994       1.16681105       0.00000000 NULL
P        0.57750097       3.35303095       3.34159781       0.00000000 NULL
P        0.81024359       4.97597003       4.98706064       0.00000000 NULL
9
Lattice="3.288923182926164 -1.1954610733938864 -0.26891886135071896 -0.19795112753968597 7.032184760199946 0.26054121736625474 0.34792903831389127 3.2597622707442584 7.147086572099338" Properties=species:S:1:pos:R:3:initial_magmoms:R:1:castep_labels:S:1 n_minim_iter=27 pbc="T T T"
P        1.64059964       0.64609795       2.52234644       0.00000000 NULL
P        0.59471848       8.82717282       5.47787213       0.00000000 NULL
P        2.10595740       3.45023732       6.14721726       0.00000000 NULL
P        3.11235195       7.23784372       7.28129377       0.00000000 NULL
P        1.44330943       6.04044205       1.13611720       0.00000000 NULL
P        2.81352362       6.02995471       3.86045199       0.00000000 NULL
P        0.37496073       3.15478906       1.17190302       0.00000000 NULL
P        0.53452359       3.49697517       3.41053702       0.00000000 NULL
P        0.77898655       5.13450074       5.04296550       0.00000000 NULL
9
Lattice="3.243700700702391 -1.154046054482329 -0.27517530279752844 -0.16032161999527858 6.8483412518070175 0.2857408448879714 0.3389486995386916 3.230623049966117 6.985510528447352" Properties=species:S:1:pos:R:3:initial_magmoms:R:1:castep_labels:S:1 n_minim_iter=28 pbc="T T T"
P        1.61951216       0.64754167       2.45773752       0.00000000 NULL
P        0.61614728       8.64147054       5.37963040       0.00000000 NULL
P        2.07874729       3.41797000       6.00580936       0.00000000 NULL
P        3.09172908       7.10806802       7.13110371       0.00000000 NULL
P        1.45068468       5.90143807       1.13322324       0.00000000 NULL
P        2.79830372       5.91480369       3.78446592       0.00000000 NULL
P        0.38233337       3.08329153       1.15438237       0.00000000 NULL
P        0.53425709       3.43493227       3.34418928       0.00000000 NULL
P        0.78183517       5.03810348       4.94048014       0.00000000 NULL
9
Lattice="3.2582305456394787 -1.1489940940084182 -0.2809920494245704 -0.14675469460203355 6.880315854935515 0.3047458684836548 0.33775113180009825 3.2763194759072576 7.045233762374693" Properties=species:S:1:pos:R:3:initial_magmoms:R:1:castep_labels:S:1 n_minim_iter=29 pbc="T T T"
P        1.62632857       0.66563861       2.47580810       0.00000000 NULL
P        0.63073073       8.70751983       5.43794882       0.00000000 NULL
P        2.08817652       3.46906055       6.05637155       0.00000000 NULL
P        3.11254138       7.17883272       7.20361509       0.00000000 NULL
P        1.46804169       5.94087208       1.15822956       0.00000000 NULL
P        2.82011199       5.96892100       3.82558196       0.00000000 NULL
P        0.39055979       3.09993669       1.16821392       0.00000000 NULL
P        0.53866366       3.46792148       3.38000821       0.00000000 NULL
P        0.79001958       5.08412383       4.98995786       0.00000000 NULL
