13
Lattice="4.336210000000001 -3.781774291233394e-15 -1.571495530376549e-15 1.9149981595970869 6.617994749834711 -1.7209369230942951e-15 0.49354490579097465 2.5090477809154206 9.976610619401322" Properties=species:S:1:pos:R:3:initial_magmoms:R:1:castep_labels:S:1 n_minim_iter=1 pbc="T T T"
P        2.53553381       6.75052999       5.96280268       0.00000000 NULL
P        2.28320713       5.90182479       1.17884230       0.00000000 NULL
P        4.62964521       6.28762243       6.53085293       0.00000000 NULL
P        3.39084737       2.82373610       4.70154061       0.00000000 NULL
P        2.69594102       4.16049268       0.12238608       0.00000000 NULL
P        5.20385965       5.90688884       4.61495061       0.00000000 NULL
P        6.18243699       7.68771728       4.26967708       0.00000000 NULL
P        4.34250274       1.16840395       0.46301051       0.00000000 NULL
P        2.42894541       3.95637877       6.10552607       0.00000000 NULL
P        1.60900646       5.65156352       7.97726792       0.00000000 NULL
P        3.36532666       2.46733817       1.82232869       0.00000000 NULL
P        3.30368418       5.26507556       4.82470286       0.00000000 NULL
P        4.58783477       3.30579195       0.45108746       0.00000000 NULL
13
Lattice="4.34874896911213 -9.847669805527175e-05 -0.0016349845511660567 1.9203854412329568 6.636243118020444 -0.0014534068448585208 0.491153383552136 2.5148689671037987 10.001162015645365" Properties=species:S:1:pos:R:3:initial_magmoms:R:1:castep_labels:S:1 n_minim_iter=2 pbc="T T T"
P        2.54045371       6.76873428       5.97634039       0.00000000 NULL
P        2.28926582       5.91792795       1.18050047       0.00000000 NULL
P        4.64035767       6.30432574       6.54508677       0.00000000 NULL
P        3.39875640       2.83104748       4.71167221       0.00000000 NULL
P        2.70350963       4.17190883       0.12109573       0.00000000 NULL
P        5.21710549       5.92245654       4.62358841       0.00000000 NULL
P        6.19874355       7.70846584       4.27689598       0.00000000 NULL
P        4.35484578       1.17142909       0.46219490       0.00000000 NULL
P        2.43343994       3.96627674       6.11979386       0.00000000 NULL
P        1.61064169       5.66620332       7.99617567       0.00000000 NULL
P        3.37407248       2.47381616       1.82559835       0.00000000 NULL
P        3.31118631       5.27887672       4.83462368       0.00000000 NULL
P        4.60114844       3.31494310       0.44999865       0.00000000 NULL
13
Lattice="4.599505125638677 -0.00046312155212554227 -0.034797739414608134 2.0305702248403423 6.996495881514724 -0.03138297336543551 0.4431835250693271 2.62842890835417 10.48613489689985" Properties=species:S:1:pos:R:3:initial_magmoms:R:1:castep_labels:S:1 n_minim_iter=3 pbc="T T T"
P        2.64068259       7.12786451       6.24285832       0.00000000 NULL
P        2.41251286       6.23585063       1.21228156       0.00000000 NULL
P        4.85614208       6.63440655       6.82506760       0.00000000 NULL
P        3.55740107       2.97577882       4.91093170       0.00000000 NULL
P        2.85639034       4.39782349       0.09450532       0.00000000 NULL
P        5.48371691       6.23040064       4.79237315       0.00000000 NULL
P        6.52743743       8.11912215       4.41721202       0.00000000 NULL
P        4.60203358       1.23255772       0.44495213       0.00000000 NULL
P        2.52404566       4.16098482       6.40111001       0.00000000 NULL
P        1.64464700       5.95411730       8.36898829       0.00000000 NULL
P        3.54951393       2.60233354       1.88938363       0.00000000 NULL
P        3.46260820       5.55122893       5.02928978       0.00000000 NULL
P        4.86872110       3.49700146       0.42706485       0.00000000 NULL
13
Lattice="4.7079322133690935 0.029652993181378907 -0.033479952651677206 2.1244185307678554 7.076605833766929 -0.050039225504774854 0.47598254842246984 2.6281843960214686 10.584168988451339" Properties=species:S:1:pos:R:3:initial_magmoms:R:1:castep_labels:S:1 n_minim_iter=4 pbc="T T T"
P        2.75291546       7.20071757       6.29027463       0.00000000 NULL
P        2.51211400       6.30675330       1.21126728       0.00000000 NULL
P        5.01796735       6.71289208       6.88056484       0.00000000 NULL
P        3.66194301       3.01473666       4.95266128       0.00000000 NULL
P        2.95220422       4.45796238       0.08405787       0.00000000 NULL
P        5.65576855       6.31198029       4.82275482       0.00000000 NULL
P        6.73941643       8.22930313       4.43858491       0.00000000 NULL
P        4.71764801       1.27344422       0.44597893       0.00000000 NULL
P        2.61354423       4.19516009       6.45698336       0.00000000 NULL
P        1.72821110       5.99835985       8.43702375       0.00000000 NULL
P        3.64951447       2.64422043       1.90251310       0.00000000 NULL
P        3.58113328       5.61092692       5.06320108       0.00000000 NULL
P        5.00855152       3.56303381       0.42285117       0.00000000 NULL
13
Lattice="4.818545227209027 0.07686977490754003 -0.015004352794523338 2.245331524257281 7.1018395520144715 -0.05363705767358453 0.5584014157378349 2.617495727358639 10.587237492456499" Properties=species:S:1:pos:R:3:initial_magmoms:R:1:castep_labels:S:1 n_minim_iter=5 pbc="T T T"
P        2.91669830       7.22811569       6.29658799       0.00000000 NULL
P        2.64140852       6.33153764       1.21523710       0.00000000 NULL
P        5.23357197       6.75793925       6.89647342       0.00000000 NULL
P        3.79728574       3.04569908       4.96373373       0.00000000 NULL
P        3.06624856       4.48887490       0.08823266       0.00000000 NULL
P        5.87117238       6.36388565       4.83485440       0.00000000 NULL
P        7.00242853       8.29605145       4.45029726       0.00000000 NULL
P        4.84132164       1.32137583       0.46072196       0.00000000 NULL
P        2.74430007       4.20778017       6.46558260       0.00000000 NULL
P        1.86703209       6.00475043       8.43679354       0.00000000 NULL
P        3.76886402       2.67854191       1.91155920       0.00000000 NULL
P        3.74024883       5.63838224       5.06812416       0.00000000 NULL
P        5.16476574       3.61704266       0.43658239       0.00000000 NULL
13
Lattice="4.977695176357277 0.1476821165644117 0.025781301368659453 2.423691789333825 7.091454171185287 -0.017348211338136594 0.7113280004277526 2.637313957795481 10.529227265155313" Properties=species:S:1:pos:R:3:initial_magmoms:R:1:castep_labels:S:1 n_minim_iter=6 pbc="T T T"
P        3.17657518       7.25281593       6.30448335       0.00000000 NULL
P        2.83588598       6.33189873       1.25160649       0.00000000 NULL
P        5.56951976       6.81494921       6.91708159       0.00000000 NULL
P        4.00868659       3.09705991       4.96863766       0.00000000 NULL
P        3.23366738       4.50430946       0.12467020       0.00000000 NULL
P        6.19974197       6.42418076       4.86591617       0.00000000 NULL
P        7.40043148       8.36174252       4.49566205       0.00000000 NULL
P        5.02122961       1.38707729       0.49809671       0.00000000 NULL
P        2.95482277       4.23203533       6.45934005       0.00000000 NULL
P        2.09735613       6.01701098       8.40856029       0.00000000 NULL
P        3.94903001       2.72340913       1.93306951       0.00000000 NULL
P        3.98799783       5.66671934       5.07677173       0.00000000 NULL
P        5.39195035       3.67641128       0.48626756       0.00000000 NULL
13
Lattice="5.1402886094739735 0.21963570781584132 0.07738587004586113 2.6053145922688232 7.042956483031669 0.10645118950026179 0.8901986840345661 2.7673408635302077 10.461894167032186" Properties=species:S:1:pos:R:3:initial_magmoms:R:1:castep_labels:S:1 n_minim_iter=7 pbc="T T T"
P        3.45587510       7.31935791       6.38446065       0.00000000 NULL
P        3.03905896       6.31162672       1.36825003       0.00000000 NULL
P        5.92635524       6.91940638       7.00395122       0.00000000 NULL
P        4.23249311       3.19280688       4.99454624       0.00000000 NULL
P        3.40624627       4.49401775       0.21995669       0.00000000 NULL
P        6.54487972       6.50982623       4.96401090       0.00000000 NULL
P        7.81931478       8.43426988       4.63233942       0.00000000 NULL
P        5.20446374       1.45247521       0.55421897       0.00000000 NULL
P        3.18249972       4.30821353       6.48536574       0.00000000 NULL
P        2.35297632       6.09701812       8.41695446       0.00000000 NULL
P        4.13651287       2.78058181       1.98334564       0.00000000 NULL
P        4.25036764       5.72128626       5.13676273       0.00000000 NULL
P        5.62283407       3.72561591       0.58829075       0.00000000 NULL
13
Lattice="5.174933440570313 0.2627243799405881 0.10363341688590617 2.6863774083427567 6.981398074127318 0.25367014770838064 0.9794637038593484 2.9461501658266793 10.453344319677274" Properties=species:S:1:pos:R:3:initial_magmoms:R:1:castep_labels:S:1 n_minim_iter=8 pbc="T T T"
P        3.58479856       7.39961664       6.51834215       0.00000000 NULL
P        3.13033668       6.28176379       1.51152544       0.00000000 NULL
P        6.06343970       7.02620808       7.13041803       0.00000000 NULL
P        4.30830784       3.29273781       5.03676956       0.00000000 NULL
P        3.47407442       4.46514726       0.32174352       0.00000000 NULL
P        6.66940317       6.58537535       5.08483823       0.00000000 NULL
P        7.97833641       8.48305298       4.79151941       0.00000000 NULL
P        5.24822243       1.49155020       0.58885022       0.00000000 NULL
P        3.27631707       4.40131643       6.54956299       0.00000000 NULL
P        2.47602475       6.20764311       8.47959523       0.00000000 NULL
P        4.19474182       2.82608911       2.03662435       0.00000000 NULL
P        4.35552164       5.77953186       5.22817760       0.00000000 NULL
P        5.69256129       3.74696620       0.68388993       0.00000000 NULL
13
Lattice="5.217311144650511 0.28762095971317997 0.1270960532194395 2.7430902196561875 6.981334633370384 0.3084710356457825 1.0526750093549293 3.011783150576395 10.510874944676114" Properties=species:S:1:pos:R:3:initial_magmoms:R:1:castep_labels:S:1 n_minim_iter=9 pbc="T T T"
P        3.68732990       7.44983423       6.61079975       0.00000000 NULL
P        3.19736814       6.28958102       1.57720215       0.00000000 NULL
P        6.17774601       7.08782772       7.22719193       0.00000000 NULL
P        4.37811301       3.34245635       5.08865074       0.00000000 NULL
P        3.52687062       4.47169446       0.36455465       0.00000000 NULL
P        6.77605138       6.63644121       5.16926996       0.00000000 NULL
P        8.10908410       8.53081035       4.88703221       0.00000000 NULL
P        5.29601183       1.51873320       0.61404051       0.00000000 NULL
P        3.35398110       4.44482497       6.61669067       0.00000000 NULL
P        2.57136699       6.26059225       8.54991073       0.00000000 NULL
P        4.24749158       2.85485539       2.07638450       0.00000000 NULL
P        4.44344883       5.81860753       5.29647503       0.00000000 NULL
P        5.75965651       3.77477052       0.73421498       0.00000000 NULL
13
Lattice="5.222327096159465 0.3006625479952871 0.14007341542500695 2.7652096974233498 6.957807173516545 0.3354360447078459 1.0906500278723958 3.0341740326221687 10.493741813442844" Properties=species:S:1:pos:R:3:initial_magmoms:R:1:castep_labels:S:1 n_minim_iter=10 pbc="T T T"
P        3.73215567       7.44990138       6.62912031       0.00000000 NULL
P        3.22362510       6.27237625       1.60427838       0.00000000 NULL
P        6.22048877       7.09545909       7.24559517       0.00000000 NULL
P        4.40197597       3.35694727       5.09353235       0.00000000 NULL
P        3.54425197       4.46067516       0.38581735       0.00000000 NULL
P        6.81214220       6.64109644       5.19170267       0.00000000 NULL
P        8.15334369       8.52692645       4.91643318       0.00000000 NULL
P        5.30373943       1.52875485       0.62563390       0.00000000 NULL
P        3.38620442       4.45211509       6.62220236       0.00000000 NULL
P        2.61582002       6.26585584       8.54743913       0.00000000 NULL
P        4.26234210       2.86053522       2.08835279       0.00000000 NULL
P        4.47723266       5.81921206       5.30918393       0.00000000 NULL
P        5.77624298       3.77707861       0.75824550       0.00000000 NULL
13
Lattice="5.235076859667254 0.31017753793021313 0.1497201657825518 2.7853623023679432 6.949251392401612 0.3614340073379957 1.1198017565180984 3.063189678977334 10.50118413518626" Properties=species:S:1:pos:R:3:initial_magmoms:R:1:castep_labels:S:1 n_minim_iter=11 pbc="T T T"
P        3.77150539       7.46531799       6.66084302       0.00000000 NULL
P        3.24815904       6.26820429       1.63291956       0.00000000 NULL
P        6.26109593       7.11556952       7.27720321       0.00000000 NULL
P        4.42607022       3.37604534       5.10764515       0.00000000 NULL
P        3.56279269       4.45797696       0.40540440       0.00000000 NULL
P        6.84922000       6.65646494       5.22178876       0.00000000 NULL
P        8.19911049       8.53749803       4.95221795       0.00000000 NULL
P        5.31798975       1.53809980       0.63502371       0.00000000 NULL
P        3.41461649       4.46783901       6.64148834       0.00000000 NULL
P        2.65248769       6.28450679       8.56417792       0.00000000 NULL
P        4.27952832       2.86965550       2.10283058       0.00000000 NULL
P        4.50921376       5.83072344       5.33157639       0.00000000 NULL
P        5.79832214       3.78398967       0.78013298       0.00000000 NULL
13
Lattice="5.280756883002113 0.34451183698239385 0.18601860415885738 2.85793751701004 6.9092733233025125 0.45278177463470676 1.228382043319756 3.1597328649337975 10.511912776152533" Properties=species:S:1:pos:R:3:initial_magmoms:R:1:castep_labels:S:1 n_minim_iter=12 pbc="T T T"
P        3.91728448       7.50963496       6.76508547       0.00000000 NULL
P        3.33758501       6.24410815       1.73323708       0.00000000 NULL
P        6.40888849       7.17631900       7.38000610       0.00000000 NULL
P        4.51354419       3.43907341       5.15065257       0.00000000 NULL
P        3.63011760       4.44278188       0.47484940       0.00000000 NULL
P        6.98391775       6.70177131       5.32275662       0.00000000 NULL
P        8.36512710       8.56227094       5.07316872       0.00000000 NULL
P        5.36826065       1.57002651       0.66808535       0.00000000 NULL
P        3.51861480       4.51607832       6.70124857       0.00000000 NULL
P        2.78782953       6.34017014       8.60916540       0.00000000 NULL
P        4.34113178       2.89804028       2.15232436       0.00000000 NULL
P        4.62633431       5.86279095       5.40369303       0.00000000 NULL
P        5.87798054       3.80438820       0.85883966       0.00000000 NULL
13
Lattice="5.358206847674919 0.37945044291687197 0.23347666828668004 2.9454655773323455 6.865036247194399 0.561516851102476 1.366603737785662 3.27341070046435 10.526382628439615" Properties=species:S:1:pos:R:3:initial_magmoms:R:1:castep_labels:S:1 n_minim_iter=13 pbc="T T T"
P        4.11028509       7.56811616       6.89717107       0.00000000 NULL
P        3.45319288       6.21490738       1.85911059       0.00000000 NULL
P        6.60296841       7.24588681       7.50744514       0.00000000 NULL
P        4.63200103       3.51239500       5.20134845       0.00000000 NULL
P        3.72211308       4.42631969       0.55832160       0.00000000 NULL
P        7.16760098       6.75354606       5.44881595       0.00000000 NULL
P        8.58943641       8.58441376       5.22038054       0.00000000 NULL
P        5.44511752       1.60388553       0.70484229       0.00000000 NULL
P        3.65271390       4.57014534       6.77861072       0.00000000 NULL
P        2.95962128       6.40602200       8.65649790       0.00000000 NULL
P        4.42605860       2.92759932       2.21501606       0.00000000 NULL
P        4.78356548       5.89968382       5.49154982       0.00000000 NULL
P        5.99428395       3.82693343       0.95808206       0.00000000 NULL
13
Lattice="5.367055487456222 0.3909845848195544 0.2513963292368694 2.966976993857818 6.771904140676328 0.5974500591401639 1.415513821468103 3.279722710535484 10.442004166742292" Properties=species:S:1:pos:R:3:initial_magmoms:R:1:castep_labels:S:1 n_minim_iter=14 pbc="T T T"
P        4.17554211       7.51055968       6.89254830       0.00000000 NULL
P        3.48697758       6.13342877       1.89570084       0.00000000 NULL
P        6.64902422       7.19269212       7.49392496       0.00000000 NULL
P        4.65641579       3.50336897       5.17379408       0.00000000 NULL
P        3.74671308       4.37367472       0.58566377       0.00000000 NULL
P        7.21099081       6.70183673       5.45362214       0.00000000 NULL
P        8.64210351       8.49552191       5.23275626       0.00000000 NULL
P        5.44944410       1.60200109       0.70931832       0.00000000 NULL
P        3.68769423       4.53842944       6.75363743       0.00000000 NULL
P        3.01535683       6.35884652       8.59164035       0.00000000 NULL
P        4.43827911       2.90628219       2.22060486       0.00000000 NULL
P        4.82731735       5.84855746       5.47867490       0.00000000 NULL
P        6.01385261       3.79573672       0.99052889       0.00000000 NULL
13
Lattice="5.398315822949139 0.38803338388122094 0.25097134184062503 2.9762783082825686 6.795955630919111 0.6091713437073185 1.4163864132936828 3.30695220250856 10.507738484495416" Properties=species:S:1:pos:R:3:initial_magmoms:R:1:castep_labels:S:1 n_minim_iter=15 pbc="T T T"
P        4.19404622       7.54965379       6.94633652       0.00000000 NULL
P        3.50210759       6.15501738       1.91854450       0.00000000 NULL
P        6.67452510       7.22582240       7.54704282       0.00000000 NULL
P        4.67552956       3.52172734       5.20476216       0.00000000 NULL
P        3.76499086       4.38819727       0.59262871       0.00000000 NULL
P        7.24330384       6.72949099       5.49213853       0.00000000 NULL
P        8.68244450       8.52552091       5.27008257       0.00000000 NULL
P        5.47686061       1.60478681       0.70854967       0.00000000 NULL
P        3.69922418       4.56077088       6.80128434       0.00000000 NULL
P        3.02434084       6.39324579       8.64527143       0.00000000 NULL
P        4.45729022       2.91615588       2.23629337       0.00000000 NULL
P        4.84871274       5.87411761       5.51605461       0.00000000 NULL
P        6.04543563       3.80794131       1.00030001       0.00000000 NULL
13
Lattice="5.4018141640133495 0.38846906421854593 0.25491947451162683 2.978488221290615 6.778515582115999 0.6148663231737003 1.426120423760624 3.3062735613009084 10.494553245985905" Properties=species:S:1:pos:R:3:initial_magmoms:R:1:castep_labels:S:1 n_minim_iter=16 pbc="T T T"
P        4.20631088       7.53808319       6.94678686       0.00000000 NULL
P        3.50776881       6.13925728       1.92566059       0.00000000 NULL
P        6.68306268       7.21341849       7.54604125       0.00000000 NULL
P        4.68060482       3.51823125       5.20059761       0.00000000 NULL
P        3.76956346       4.37801614       0.59714537       0.00000000 NULL
P        7.25198727       6.71763164       5.49421584       0.00000000 NULL
P        8.69275772       8.50615000       5.27305716       0.00000000 NULL
P        5.47844626       1.60275440       0.70917080       0.00000000 NULL
P        3.70550562       4.55280918       6.79839671       0.00000000 NULL
P        3.03453551       6.38277890       8.63368838       0.00000000 NULL
P        4.45988517       2.91047762       2.23788547       0.00000000 NULL
P        4.85713692       5.86270113       5.51448211       0.00000000 NULL
P        6.04960903       3.80067646       1.00681111       0.00000000 NULL
13
Lattice="5.4118185170324615 0.388482053523618 0.25936880331961676 2.982926262984237 6.762329038543469 0.6233629207305463 1.4375035000623586 3.3099825755585712 10.49142545923555" Properties=species:S:1:pos:R:3:initial_magmoms:R:1:castep_labels:S:1 n_minim_iter=17 pbc="T T T"
P        4.22411829       7.53131850       6.95698971       0.00000000 NULL
P        3.51735777       6.12467599       1.93795109       0.00000000 NULL
P        6.69785054       7.20454097       7.55449060       0.00000000 NULL
P        4.69008746       3.51719008       5.20135796       0.00000000 NULL
P        3.77848963       4.36872429       0.60345936       0.00000000 NULL
P        7.26828772       6.70849944       5.50354943       0.00000000 NULL
P        8.71254430       8.48869300       5.28317102       0.00000000 NULL
P        5.48541702       1.60079229       0.70961044       0.00000000 NULL
P        3.71491512       4.54723782       6.80377033       0.00000000 NULL
P        3.04804466       6.37632852       8.62990655       0.00000000 NULL
P        4.46652267       2.90545922       2.24252175       0.00000000 NULL
P        4.87100793       5.85366702       5.51939595       0.00000000 NULL
P        6.06043744       3.79431868       1.01604448       0.00000000 NULL
13
Lattice="5.616024602194507 0.39141013559618454 0.345526723777517 3.077578576651521 6.470189428751378 0.7750999877009039 1.6606697201198861 3.3704512939077858 10.448065509558939" Properties=species:S:1:pos:R:3:initial_magmoms:R:1:castep_labels:S:1 n_minim_iter=18 pbc="T T T"
P        4.58269869       7.40938324       7.15370500       0.00000000 NULL
P        3.71632365       5.86496393       2.16599627       0.00000000 NULL
P        6.99921373       7.04206542       7.71912086       0.00000000 NULL
P        4.88040726       3.49471264       5.22107459       0.00000000 NULL
P        3.96297348       4.20340365       0.71876849       0.00000000 NULL
P        7.60117240       6.54339796       5.68333643       0.00000000 NULL
P        9.11755577       8.17383503       5.47544069       0.00000000 NULL
P        5.62653948       1.56402593       0.71793013       0.00000000 NULL
P        3.90444378       4.44428957       6.91140772       0.00000000 NULL
P        3.31527063       6.25241182       8.56495685       0.00000000 NULL
P        4.60356679       2.81371006       2.33056100       0.00000000 NULL
P        5.15110994       5.68755070       5.61570504       0.00000000 NULL
P        6.28192069       3.68187393       1.18986541       0.00000000 NULL
