15
Lattice="5.8337599999999785 1.6438420360477035e-14 6.7541666135827574e-15 -2.625697383300464 6.697970022994222 4.03345397446218e-15 -2.3952176352707917 -2.919575540529103 8.329109195540179" Properties=species:S:1:pos:R:3:initial_magmoms:R:1:castep_labels:S:1 n_minim_iter=1 pbc="T T T"
P       -1.06024183       1.74005930       2.11773931       0.00000000 NULL
P       -1.30422274       1.80593153       8.14360161       0.00000000 NULL
P       -2.85945216       0.59967823       7.72203374       0.00000000 NULL
P        0.13988262      -0.01554610       3.84447359       0.00000000 NULL
P        3.34847690      -1.84947671       6.11903088       0.00000000 NULL
P       -0.73778542       0.75457832       5.48686482       0.00000000 NULL
P       -4.27449646       2.59513831       8.08929665       0.00000000 NULL
P       -2.37552133       1.89987774       5.68143281       0.00000000 NULL
P        0.15468362       2.13028083       4.29482103       0.00000000 NULL
P        1.85104092       2.88297727       3.28525887       0.00000000 NULL
P        0.13841106       1.69892483       0.10193664       0.00000000 NULL
P        3.02253204       3.61646414       0.60100270       0.00000000 NULL
P        1.64846764       1.03727759       5.20121469       0.00000000 NULL
P        0.57161819       1.19382807       6.97996758       0.00000000 NULL
P       -0.76167501       3.63457139       5.27138077       0.00000000 NULL
15
Lattice="5.854128198423904 0.0006132457641819798 -0.00014033625971470798 -2.6341607454475446 6.71311105993885 0.0019905097206848197 -2.4040876541657057 -2.9241507505303557 8.350595980833116" Properties=species:S:1:pos:R:3:initial_magmoms:R:1:castep_labels:S:1 n_minim_iter=2 pbc="T T T"
P       -1.06379059       1.74456091       2.12391557       0.00000000 NULL
P       -1.30858218       1.81251429       8.16609321       0.00000000 NULL
P       -2.86966831       0.60297021       7.74286377       0.00000000 NULL
P        0.14034602      -0.01472372       3.85436096       0.00000000 NULL
P        3.35992945      -1.85161884       6.13479734       0.00000000 NULL
P       -0.74076981       0.75744361       5.50186790       0.00000000 NULL
P       -4.28926406       2.60312688       8.11190548       0.00000000 NULL
P       -2.38389476       1.90593711       5.69729100       0.00000000 NULL
P        0.15540873       2.13654591       4.30648367       0.00000000 NULL
P        1.85779294       2.89079881       3.29483400       0.00000000 NULL
P        0.13907433       1.70268075       0.10278932       0.00000000 NULL
P        3.03343644       3.62520631       0.60391993       0.00000000 NULL
P        1.65445311       1.04116614       5.21524666       0.00000000 NULL
P        0.57353072       1.19860358       6.99898144       0.00000000 NULL
P       -0.76426730       3.64468674       5.28660983       0.00000000 NULL
15
Lattice="6.184796561601827 0.01092637556032338 -0.0024770685843062495 -2.771149243726309 6.954193352717963 0.03472871814498803 -2.5483506260914077 -2.996090680352655 8.693179354657437" Properties=species:S:1:pos:R:3:initial_magmoms:R:1:castep_labels:S:1 n_minim_iter=3 pbc="T T T"
P       -1.12124677       1.81650549       2.22272158       0.00000000 NULL
P       -1.37913086       1.91861436       8.52547953       0.00000000 NULL
P       -3.03554248       0.65632435       8.07543665       0.00000000 NULL
P        0.14784271      -0.00117059       4.01187097       0.00000000 NULL
P        3.54575115      -1.88462216       6.38615182       0.00000000 NULL
P       -0.78963811       0.80351475       5.74145862       0.00000000 NULL
P       -4.52894614       2.73119013       8.47328758       0.00000000 NULL
P       -2.51991791       2.00332307       5.95080044       0.00000000 NULL
P        0.16738912       2.23711205       4.49248463       0.00000000 NULL
P        1.96754157       3.01608809       3.44810175       0.00000000 NULL
P        0.14986077       1.76240888       0.11672402       0.00000000 NULL
P        3.21065402       3.76498346       0.65116541       0.00000000 NULL
P        1.75189645       1.10394565       5.43919751       0.00000000 NULL
P        0.60456627       1.27581085       7.30266381       0.00000000 NULL
P       -0.80622758       3.80688329       5.53028999       0.00000000 NULL
15
Lattice="6.285703301210912 0.01785069955012055 -0.006267606348031684 -2.808615928614882 6.986514420412971 0.04942413651526471 -2.598658059398309 -2.998227937756183 8.736593464106406" Properties=species:S:1:pos:R:3:initial_magmoms:R:1:castep_labels:S:1 n_minim_iter=4 pbc="T T T"
P       -1.13734261       1.82837482       2.23821547       0.00000000 NULL
P       -1.40220029       1.94361964       8.57786595       0.00000000 NULL
P       -3.08893426       0.67205492       8.12244846       0.00000000 NULL
P        0.14791762       0.00512605       4.03021949       0.00000000 NULL
P        3.59830590      -1.87933709       6.41573592       0.00000000 NULL
P       -0.81085381       0.81247523       5.77526348       0.00000000 NULL
P       -4.60560664       2.75410095       8.52843714       0.00000000 NULL
P       -2.56419943       2.02434056       5.98945824       0.00000000 NULL
P        0.17145624       2.25878031       4.51515812       0.00000000 NULL
P        2.00062869       3.03963351       3.47227511       0.00000000 NULL
P        0.15267248       1.76946881       0.12209144       0.00000000 NULL
P        3.26638230       3.79017117       0.66203144       0.00000000 NULL
P        1.78195536       1.12017214       5.46823379       0.00000000 NULL
P        0.61099269       1.29675743       7.34543752       0.00000000 NULL
P       -0.81876871       3.83918218       5.56873681       0.00000000 NULL
15
Lattice="6.346037565051305 0.02463584327820225 -0.012183412003054403 -2.8279812829312525 6.973750071591494 0.06265474980045871 -2.6352719797017414 -2.983639507755813 8.715536508194221" Properties=species:S:1:pos:R:3:initial_magmoms:R:1:castep_labels:S:1 n_minim_iter=5 pbc="T T T"
P       -1.14590097       1.82765721       2.23630579       0.00000000 NULL
P       -1.41875188       1.95308387       8.56520998       0.00000000 NULL
P       -3.12454211       0.68195225       8.10890905       0.00000000 NULL
P        0.14545652       0.01056021       4.01767699       0.00000000 NULL
P        3.62525581      -1.86428604       6.39616871       0.00000000 NULL
P       -0.83046833       0.81347640       5.76533099       0.00000000 NULL
P       -4.65615479       2.75534523       8.51984764       0.00000000 NULL
P       -2.59429305       2.03063464       5.98327803       0.00000000 NULL
P        0.17336233       2.26505570       4.50168866       0.00000000 NULL
P        2.01913530       3.04220842       3.46908081       0.00000000 NULL
P        0.15354566       1.76467277       0.12644880       0.00000000 NULL
P        3.30056164       3.79160372       0.66560666       0.00000000 NULL
P        1.79936970       1.12753660       5.45447808       0.00000000 NULL
P        0.61079880       1.30747077       7.33198488       0.00000000 NULL
P       -0.82717922       3.84573233       5.56422768       0.00000000 NULL
15
Lattice="6.392542116217601 0.03415692849803032 -0.022663607049902845 -2.83798082609383 6.933790476163202 0.07829879956746552 -2.6740937237461893 -2.958410522557812 8.657479952654322" Properties=species:S:1:pos:R:3:initial_magmoms:R:1:castep_labels:S:1 n_minim_iter=6 pbc="T T T"
P       -1.15136282       1.81962117       2.22512314       0.00000000 NULL
P       -1.43664470       1.95529642       8.51628034       0.00000000 NULL
P       -3.15826736       0.69013613       8.06186483       0.00000000 NULL
P        0.13954636       0.01627504       3.98585581       0.00000000 NULL
P        3.63875876      -1.84076550       6.34567701       0.00000000 NULL
P       -0.85534250       0.80935928       5.73076568       0.00000000 NULL
P       -4.70228966       2.74353672       8.47763077       0.00000000 NULL
P       -2.62306569       2.02951360       5.95318295       0.00000000 NULL
P        0.17344374       2.26434785       4.46572093       0.00000000 NULL
P        2.03151107       3.03427163       3.45018019       0.00000000 NULL
P        0.15355795       1.75218819       0.13122333       0.00000000 NULL
P        3.32840355       3.78137192       0.66533859       0.00000000 NULL
P        1.81096077       1.13168297       5.41445123       0.00000000 NULL
P        0.60414592       1.31456365       7.28541738       0.00000000 NULL
P       -0.83539018       3.83986171       5.53633611       0.00000000 NULL
15
Lattice="6.5124483688028 0.0749432392531877 -0.07018852456641854 -2.845120654757978 6.816235464245221 0.13039995234430793 -2.8115900406232193 -2.8937275438704577 8.498045764990321" Properties=species:S:1:pos:R:3:initial_magmoms:R:1:castep_labels:S:1 n_minim_iter=7 pbc="T T T"
P       -1.16366144       1.79426187       2.19561015       0.00000000 NULL
P       -1.50286618       1.95911226       8.38034032       0.00000000 NULL
P       -3.26793055       0.71135959       7.93527975       0.00000000 NULL
P        0.11056236       0.03166330       3.89031627       0.00000000 NULL
P        3.64806237      -1.76822478       6.19079517       0.00000000 NULL
P       -0.94707418       0.79087723       5.63442882       0.00000000 NULL
P       -4.84368319       2.69878785       8.37004370       0.00000000 NULL
P       -2.71492516       2.02273614       5.87467432       0.00000000 NULL
P        0.16725945       2.26521276       4.35673360       0.00000000 NULL
P        2.05827150       3.01596574       3.39210275       0.00000000 NULL
P        0.15422606       1.71401018       0.14639363       0.00000000 NULL
P        3.40641896       3.76088542       0.66053725       0.00000000 NULL
P        1.83109046       1.14707143       5.29205028       0.00000000 NULL
P        0.56498775       1.33633263       7.14625506       0.00000000 NULL
P       -0.86246227       3.82681634       5.45876598       0.00000000 NULL
15
Lattice="6.500259090846166 0.1314524258283848 -0.12540508968987593 -2.7747539970724517 6.792889198611866 0.15745899601711275 -2.913701143193969 -2.91509482353497 8.524654034062683" Properties=species:S:1:pos:R:3:initial_magmoms:R:1:castep_labels:S:1 n_minim_iter=8 pbc="T T T"
P       -1.15037898       1.78261597       2.20516591       0.00000000 NULL
P       -1.54869364       1.95227439       8.40461734       0.00000000 NULL
P       -3.31968301       0.70762938       7.96870920       0.00000000 NULL
P        0.07216874       0.03044435       3.87230331       0.00000000 NULL
P        3.56904507      -1.74100041       6.16313234       0.00000000 NULL
P       -1.02159847       0.75835964       5.64804829       0.00000000 NULL
P       -4.88931057       2.65136622       8.42411585       0.00000000 NULL
P       -2.75524400       2.01335862       5.90682867       0.00000000 NULL
P        0.15393132       2.28091450       4.32904396       0.00000000 NULL
P        2.04579071       3.03137559       3.38775294       0.00000000 NULL
P        0.15751433       1.69886030       0.15658928       0.00000000 NULL
P        3.42341116       3.79552543       0.65780942       0.00000000 NULL
P        1.80538895       1.16170908       5.26814562       0.00000000 NULL
P        0.50683329       1.34575773       7.13279139       0.00000000 NULL
P       -0.86624701       3.84490415       5.47364205       0.00000000 NULL
15
Lattice="6.462058467383241 0.17469485523373293 -0.13665473721564622 -2.707912067862899 6.720853368821524 0.18175879315672788 -2.9357195798217437 -2.8860121326931143 8.40094123208805" Properties=species:S:1:pos:R:3:initial_magmoms:R:1:castep_labels:S:1 n_minim_iter=9 pbc="T T T"
P       -1.12760957       1.76550911       2.18107508       0.00000000 NULL
P       -1.53615557       1.95362049       8.29841574       0.00000000 NULL
P       -3.30463696       0.71392314       7.86691293       0.00000000 NULL
P        0.06168203       0.04168655       3.80814736       0.00000000 NULL
P        3.52384701      -1.68728811       6.06365216       0.00000000 NULL
P       -1.03552097       0.74723671       5.57211149       0.00000000 NULL
P       -4.85983440       2.61684657       8.32772894       0.00000000 NULL
P       -2.74208189       2.00415335       5.83735823       0.00000000 NULL
P        0.16322798       2.28441381       4.25975486       0.00000000 NULL
P        2.04621112       3.02938634       3.35035422       0.00000000 NULL
P        0.16217630       1.67962775       0.16420948       0.00000000 NULL
P        3.42599297       3.79474336       0.66185746       0.00000000 NULL
P        1.79915268       1.17882115       5.18760465       0.00000000 NULL
P        0.49697985       1.35981405       7.03084080       0.00000000 NULL
P       -0.83894180       3.83634886       5.41122380       0.00000000 NULL
15
Lattice="6.505387037036166 0.18660915038928322 -0.14474712139437154 -2.7137344054569823 6.745114504044651 0.18917484013887104 -2.9710258643345466 -2.899123717956018 8.449433857054322" Properties=species:S:1:pos:R:3:initial_magmoms:R:1:castep_labels:S:1 n_minim_iter=10 pbc="T T T"
P       -1.13265884       1.77154154       2.19537719       0.00000000 NULL
P       -1.55122305       1.96466431       8.34868069       0.00000000 NULL
P       -3.33286043       0.71906047       7.91549375       0.00000000 NULL
P        0.05675184       0.04310165       3.82550822       0.00000000 NULL
P        3.53765118      -1.68636425       6.09225437       0.00000000 NULL
P       -1.05243854       0.74585505       5.60454776       0.00000000 NULL
P       -4.89805434       2.62260684       8.38231795       0.00000000 NULL
P       -2.76644132       2.01399714       5.87438286       0.00000000 NULL
P        0.16352916       2.29934889       4.27919908       0.00000000 NULL
P        2.06070478       3.04700573       3.36981456       0.00000000 NULL
P        0.16439577       1.68443854       0.16738568       0.00000000 NULL
P        3.45367187       3.81781497       0.66777975       0.00000000 NULL
P        1.80979496       1.18862437       5.21278462       0.00000000 NULL
P        0.49337139       1.36990767       7.06787662       0.00000000 NULL
P       -0.84298806       3.85816224       5.44464713       0.00000000 NULL
15
Lattice="6.499702103533616 0.19537098614264597 -0.15118900175605357 -2.701115883569844 6.73250491803626 0.19467801418075695 -2.982274066751522 -2.895705862319692 8.440218700212714" Properties=species:S:1:pos:R:3:initial_magmoms:R:1:castep_labels:S:1 n_minim_iter=11 pbc="T T T"
P       -1.12945478       1.76791500       2.19447504       0.00000000 NULL
P       -1.55460686       1.96416769       8.34143495       0.00000000 NULL
P       -3.33542825       0.72025100       7.90973452       0.00000000 NULL
P        0.05171741       0.04452163       3.81760152       0.00000000 NULL
P        3.52553758      -1.67762576       6.07989798       0.00000000 NULL
P       -1.06040266       0.74109175       5.59863595       0.00000000 NULL
P       -4.89964656       2.61425075       8.37891224       0.00000000 NULL
P       -2.76946348       2.01239462       5.87093579       0.00000000 NULL
P        0.16259399       2.30079059       4.27016233       0.00000000 NULL
P        2.05890899       3.04653767       3.36627374       0.00000000 NULL
P        0.16485868       1.68035739       0.16911710       0.00000000 NULL
P        3.45449757       3.81868652       0.66801542       0.00000000 NULL
P        1.80624585       1.19111500       5.20286276       0.00000000 NULL
P        0.48642285       1.37170871       7.05742575       0.00000000 NULL
P       -0.84105046       3.85750967       5.44062420       0.00000000 NULL
15
Lattice="6.499249248044572 0.21131408006122798 -0.16132865292348492 -2.6826071642167952 6.718867816635738 0.2033952804894035 -3.004543862109866 -2.8942702846399992 8.434065830878579" Properties=species:S:1:pos:R:3:initial_magmoms:R:1:castep_labels:S:1 n_minim_iter=12 pbc="T T T"
P       -1.12511861       1.76359283       2.19523986       0.00000000 NULL
P       -1.56087974       1.96515174       8.33846883       0.00000000 NULL
P       -3.34301618       0.72224852       7.90860376       0.00000000 NULL
P        0.04384697       0.04668896       3.80853496       0.00000000 NULL
P        3.51085158      -1.66466300       6.06654843       0.00000000 NULL
P       -1.07434859       0.73329038       5.59485587       0.00000000 NULL
P       -4.90747912       2.60220278       8.38193657       0.00000000 NULL
P       -2.77731601       2.01149539       5.87125905       0.00000000 NULL
P        0.16222385       2.30588907       4.25960065       0.00000000 NULL
P        2.05982414       3.04951497       3.36425421       0.00000000 NULL
P        0.16615498       1.67545757       0.17213990       0.00000000 NULL
P        3.46138185       3.82508914       0.66953298       0.00000000 NULL
P        1.80383176       1.19663664       5.19221414       0.00000000 NULL
P        0.47663778       1.37596235       7.04779346       0.00000000 NULL
P       -0.83761099       3.86063256       5.43969611       0.00000000 NULL
15
Lattice="6.4952180904787555 0.45597722297856136 -0.2977048352587621 -2.3998853866901104 6.5286195175057244 0.31251537859303835 -3.3200434956874636 -2.9004317419594288 8.345827043870356" Properties=species:S:1:pos:R:3:initial_magmoms:R:1:castep_labels:S:1 n_minim_iter=13 pbc="T T T"
P       -1.05510021       1.69854469       2.20113447       0.00000000 NULL
P       -1.63178464       1.96892228       8.29017655       0.00000000 NULL
P       -3.43123724       0.73640679       7.88740855       0.00000000 NULL
P       -0.06417966       0.07019280       3.67596574       0.00000000 NULL
P        3.30652322      -1.48379558       5.88126344       0.00000000 NULL
P       -1.27187868       0.60060063       5.53814008       0.00000000 NULL
P       -5.00572574       2.40547851       8.41438360       0.00000000 NULL
P       -2.87763582       1.98664165       5.86809519       0.00000000 NULL
P        0.17592368       2.38094899       4.10010069       0.00000000 NULL
P        2.08493631       3.09568332       3.33411185       0.00000000 NULL
P        0.18436811       1.60607349       0.21358789       0.00000000 NULL
P        3.57042779       3.93118580       0.69115591       0.00000000 NULL
P        1.78269264       1.27363349       5.03628764       0.00000000 NULL
P        0.34915241       1.42558496       6.90735230       0.00000000 NULL
P       -0.76590762       3.90436387       5.41816585       0.00000000 NULL
15
Lattice="6.938630974725621 0.42790888544073374 -0.1307841855217253 -2.631685963558606 6.463697357993475 0.05381839433544317 -3.2497324800929426 -3.083374036122648 8.51341385857289" Properties=species:S:1:pos:R:3:initial_magmoms:R:1:castep_labels:S:1 n_minim_iter=14 pbc="T T T"
P       -1.06891965       1.60604677       2.17177139       0.00000000 NULL
P       -1.48905572       1.75752640       8.38098342       0.00000000 NULL
P       -3.37477170       0.57019918       7.96654034       0.00000000 NULL
P        0.02769263      -0.03433945       3.71881876       0.00000000 NULL
P        3.77035603      -1.65948366       6.14151650       0.00000000 NULL
P       -1.21092482       0.37361743       5.59897314       0.00000000 NULL
P       -5.12278334       2.13921205       8.40200152       0.00000000 NULL
P       -2.94761332       1.85631737       5.83450361       0.00000000 NULL
P        0.31038230       2.31046574       4.05938162       0.00000000 NULL
P        2.31350927       2.95151153       3.38894147       0.00000000 NULL
P        0.16579841       1.57137678       0.18406818       0.00000000 NULL
P        3.80470903       3.86352915       0.72053979       0.00000000 NULL
P        2.08852881       1.08925146       5.12776156       0.00000000 NULL
P        0.54954877       1.19867139       7.00805978       0.00000000 NULL
P       -0.68289450       3.74484341       5.39883053       0.00000000 NULL
15
Lattice="6.580499137062963 0.41884386930279527 -0.1649924099215903 -2.4809035140445266 6.26392462799751 0.09547352245978266 -3.146995024952463 -2.9581417091717697 8.18308779109265" Properties=species:S:1:pos:R:3:initial_magmoms:R:1:castep_labels:S:1 n_minim_iter=15 pbc="T T T"
P       -1.02280453       1.56349966       2.10083967       0.00000000 NULL
P       -1.46208802       1.73508516       8.06735155       0.00000000 NULL
P       -3.25045012       0.58455114       7.67496708       0.00000000 NULL
P       -0.00234909      -0.01593065       3.57061562       0.00000000 NULL
P        3.52698869      -1.58414454       5.86913164       0.00000000 NULL
P       -1.18795916       0.38040955       5.38684423       0.00000000 NULL
P       -4.91177585       2.09820453       8.11223542       0.00000000 NULL
P       -2.83241908       1.81834581       5.62927588       0.00000000 NULL
P        0.27558323       2.25749162       3.90366626       0.00000000 NULL
P        2.17386477       2.87255801       3.25718446       0.00000000 NULL
P        0.15704579       1.52375897       0.18305965       0.00000000 NULL
P        3.60961421       3.75266730       0.68389603       0.00000000 NULL
P        1.94882057       1.07913944       4.91434340       0.00000000 NULL
P        0.47276466       1.18871411       6.73389991       0.00000000 NULL
P       -0.67247950       3.65217156       5.20752930       0.00000000 NULL
15
Lattice="6.655278186053647 0.46697260133310603 -0.1921844749121245 -2.4593020681291127 6.331295082429539 0.11400487313258845 -3.240607591167396 -3.008885728749547 8.282619659141139" Properties=species:S:1:pos:R:3:initial_magmoms:R:1:castep_labels:S:1 n_minim_iter=16 pbc="T T T"
P       -1.03223955       1.57919699       2.13093099       0.00000000 NULL
P       -1.49809724       1.75985082       8.16684956       0.00000000 NULL
P       -3.31472407       0.58150793       7.77456478       0.00000000 NULL
P       -0.02001798      -0.01301510       3.60829381       0.00000000 NULL
P        3.52856043      -1.57554302       5.91783799       0.00000000 NULL
P       -1.22427053       0.37993984       5.45250059       0.00000000 NULL
P       -4.98360208       2.10313531       8.22635796       0.00000000 NULL
P       -2.87456883       1.83167967       5.70446466       0.00000000 NULL
P        0.27914934       2.29487538       3.94552400       0.00000000 NULL
P        2.20830350       2.92935802       3.28824687       0.00000000 NULL
P        0.16946681       1.54430742       0.18655550       0.00000000 NULL
P        3.67353177       3.82633017       0.68368236       0.00000000 NULL
P        1.95644040       1.11077944       4.96029138       0.00000000 NULL
P        0.45425915       1.21332477       6.80677899       0.00000000 NULL
P       -0.67611481       3.70406640       5.27376897       0.00000000 NULL
15
Lattice="6.628701480954368 0.48614757757951743 -0.21314141043987395 -2.4253247017091626 6.328808174243371 0.12780283721176072 -3.269213225151758 -3.0140077970222108 8.281261911960646" Properties=species:S:1:pos:R:3:initial_magmoms:R:1:castep_labels:S:1 n_minim_iter=17 pbc="T T T"
P       -1.03028409       1.57823061       2.13419892       0.00000000 NULL
P       -1.51414884       1.76446928       8.16580898       0.00000000 NULL
P       -3.32626380       0.58009146       7.77831256       0.00000000 NULL
P       -0.03503971      -0.01026917       3.60313081       0.00000000 NULL
P        3.48573091      -1.56244841       5.89797999       0.00000000 NULL
P       -1.23984135       0.37786441       5.45128614       0.00000000 NULL
P       -4.98524861       2.09536977       8.23729302       0.00000000 NULL
P       -2.87779660       1.82968577       5.70852833       0.00000000 NULL
P        0.27306050       2.30187969       3.93981716       0.00000000 NULL
P        2.19837811       2.93997114       3.28078755       0.00000000 NULL
P        0.17311257       1.54554336       0.18739705       0.00000000 NULL
P        3.66854563       3.84020847       0.67538604       0.00000000 NULL
P        1.93370562       1.12068923       4.94752738       0.00000000 NULL
P        0.42883682       1.21945063       6.79830321       0.00000000 NULL
P       -0.67933581       3.71014683       5.27475137       0.00000000 NULL
15
Lattice="6.599671116205514 0.5243192144503838 -0.25158260677532907 -2.3684321603212757 6.3368013174797015 0.15024197279743665 -3.3312815751748115 -3.034264874489152 8.298584297884569" Properties=species:S:1:pos:R:3:initial_magmoms:R:1:castep_labels:S:1 n_minim_iter=18 pbc="T T T"
P       -1.02945784       1.57818659       2.14436218       0.00000000 NULL
P       -1.54641132       1.77359226       8.18199095       0.00000000 NULL
P       -3.35559953       0.57495460       7.80272791       0.00000000 NULL
P       -0.06264877      -0.00706527       3.60144792       0.00000000 NULL
P        3.41819546      -1.54334635       5.87588478       0.00000000 NULL
P       -1.27184647       0.37073627       5.46111028       0.00000000 NULL
P       -5.00177131       2.08000542       8.27528406       0.00000000 NULL
P       -2.89151800       1.82720124       5.72731073       0.00000000 NULL
P        0.26429144       2.31894948       3.93632597       0.00000000 NULL
P        2.18869629       2.96492436       3.27339885       0.00000000 NULL
P        0.18057232       1.55088817       0.18867245       0.00000000 NULL
P        3.67147988       3.87452858       0.66097184       0.00000000 NULL
P        1.89868006       1.13918850       4.93436951       0.00000000 NULL
P        0.38381730       1.22990194       6.79734102       0.00000000 NULL
P       -0.68603464       3.72700116       5.28705833       0.00000000 NULL
15
Lattice="6.575236353323213 0.566642498685933 -0.29518041989609267 -2.3088413677542206 6.3488755731012505 0.16509187243950557 -3.404676846260564 -3.0711435038897106 8.322934332315922" Properties=species:S:1:pos:R:3:initial_magmoms:R:1:castep_labels:S:1 n_minim_iter=19 pbc="T T T"
P       -1.03127640       1.57382646       2.15414421       0.00000000 NULL
P       -1.58351431       1.77568665       8.19979758       0.00000000 NULL
P       -3.38932720       0.56035269       7.83173355       0.00000000 NULL
P       -0.09570570      -0.00955350       3.59800564       0.00000000 NULL
P        3.34841478      -1.53342381       5.85347235       0.00000000 NULL
P       -1.31165803       0.34813391       5.47144482       0.00000000 NULL
P       -5.02860410       2.04793308       8.31814437       0.00000000 NULL
P       -2.91332186       1.81889987       5.74306452       0.00000000 NULL
P        0.25725213       2.33798728       3.92425049       0.00000000 NULL
P        2.18274166       2.98828019       3.26114321       0.00000000 NULL
P        0.18759337       1.55686761       0.18754926       0.00000000 NULL
P        3.67911413       3.91390790       0.64088986       0.00000000 NULL
P        1.86228082       1.15070767       4.91473061       0.00000000 NULL
P        0.32979754       1.22910706       6.79339760       0.00000000 NULL
P       -0.69586641       3.74107367       5.29651600       0.00000000 NULL
15
Lattice="6.56727415293742 0.5707873463015832 -0.2965186518332065 -2.3004988247291727 6.335253658085825 0.14605869071948202 -3.405392726391295 -3.092138093186208 8.299360927802693" Properties=species:S:1:pos:R:3:initial_magmoms:R:1:castep_labels:S:1 n_minim_iter=20 pbc="T T T"
P       -1.03142847       1.56011149       2.14323600       0.00000000 NULL
P       -1.57860628       1.75575352       8.16753330       0.00000000 NULL
P       -3.37911488       0.53994790       7.80495522       0.00000000 NULL
P       -0.10115687      -0.02053701       3.58008908       0.00000000 NULL
P        3.34436223      -1.54720134       5.83351035       0.00000000 NULL
P       -1.31610704       0.31745773       5.44835740       0.00000000 NULL
P       -5.02540539       2.00916121       8.28795303       0.00000000 NULL
P       -2.91459813       1.80149713       5.70991694       0.00000000 NULL
P        0.26367559       2.33341860       3.89197998       0.00000000 NULL
P        2.18797971       2.97374210       3.24068153       0.00000000 NULL
P        0.18590453       1.55291231       0.18178465       0.00000000 NULL
P        3.67868864       3.90908418       0.63045226       0.00000000 NULL
P        1.86113001       1.13230528       4.88437338       0.00000000 NULL
P        0.32043924       1.20279267       6.76037313       0.00000000 NULL
P       -0.69430864       3.72209603       5.26790869       0.00000000 NULL
15
Lattice="6.584886174359046 0.5800383788179145 -0.2976958854676251 -2.297804284687291 6.341421590897459 0.1373780076879069 -3.4189344250643523 -3.11189340931612 8.315162398067272" Properties=species:S:1:pos:R:3:initial_magmoms:R:1:castep_labels:S:1 n_minim_iter=21 pbc="T T T"
P       -1.03348795       1.55642973       2.14502501       0.00000000 NULL
P       -1.57906022       1.74954476       8.17903042       0.00000000 NULL
P       -3.38437377       0.52846856       7.81756218       0.00000000 NULL
P       -0.10375950      -0.02585973       3.58334493       0.00000000 NULL
P        3.35222095      -1.55370602       5.84336188       0.00000000 NULL
P       -1.32191140       0.30292665       5.45511755       0.00000000 NULL
P       -5.03706732       1.99173054       8.30059520       0.00000000 NULL
P       -2.92194485       1.79511840       5.71267387       0.00000000 NULL
P        0.26955000       2.33678359       3.88976374       0.00000000 NULL
P        2.20119511       2.97632696       3.24142727       0.00000000 NULL
P        0.18747364       1.55493276       0.17948270       0.00000000 NULL
P        3.69385517       3.91904556       0.62800425       0.00000000 NULL
P        1.86759388       1.12807721       4.88621378       0.00000000 NULL
P        0.31875895       1.19384659       6.76679821       0.00000000 NULL
P       -0.69222791       3.72120835       5.27157004       0.00000000 NULL
15
Lattice="6.573292782405479 0.5805613527821141 -0.298885626321009 -2.291985806921482 6.33227134705565 0.1339683786762609 -3.4161347978285113 -3.11312809547673 8.304256187861363" Properties=species:S:1:pos:R:3:initial_magmoms:R:1:castep_labels:S:1 n_minim_iter=22 pbc="T T T"
P       -1.03238271       1.55200851       2.14141513       0.00000000 NULL
P       -1.57728385       1.74394599       8.16638923       0.00000000 NULL
P       -3.37887327       0.52368890       7.80657448       0.00000000 NULL
P       -0.10562441      -0.02797509       3.57683739       0.00000000 NULL
P        3.34466957      -1.55480118       5.83400443       0.00000000 NULL
P       -1.32219759       0.29628376       5.44622073       0.00000000 NULL
P       -5.03049909       1.98157784       8.28903065       0.00000000 NULL
P       -2.91890702       1.78970090       5.70172629       0.00000000 NULL
P        0.26978557       2.33369113       3.88005186       0.00000000 NULL
P        2.19867314       2.97052653       3.23437730       0.00000000 NULL
P        0.18697755       1.55268875       0.17802866       0.00000000 NULL
P        3.68831163       3.91436299       0.62483691       0.00000000 NULL
P        1.86332691       1.12336822       4.87566995       0.00000000 NULL
P        0.31474203       1.18738337       6.75465944       0.00000000 NULL
P       -0.69168752       3.71366061       5.26183889       0.00000000 NULL
15
Lattice="6.5733063369799325 0.58290500975379 -0.29964351093779046 -2.289301062617672 6.330822572614068 0.13030054609423114 -3.4183953387929047 -3.118903877531327 8.304267532629577" Properties=species:S:1:pos:R:3:initial_magmoms:R:1:castep_labels:S:1 n_minim_iter=23 pbc="T T T"
P       -1.03260891       1.54940710       2.14051443       0.00000000 NULL
P       -1.57674301       1.74033322       8.16461982       0.00000000 NULL
P       -3.37803496       0.51892095       7.80571892       0.00000000 NULL
P       -0.10705054      -0.03024010       3.57518263       0.00000000 NULL
P        3.34387414      -1.55725591       5.83303584       0.00000000 NULL
P       -1.32387293       0.28981050       5.44454602       0.00000000 NULL
P       -5.03105059       1.97327088       8.28802722       0.00000000 NULL
P       -2.91972007       1.78614296       5.69813663       0.00000000 NULL
P        0.27132917       2.33352982       3.87565497       0.00000000 NULL
P        2.20114681       2.96899803       3.23183783       0.00000000 NULL
P        0.18712533       1.55244616       0.17680152       0.00000000 NULL
P        3.68991624       3.91520295       0.62298173       0.00000000 NULL
P        1.86327278       1.12031856       4.87203702       0.00000000 NULL
P        0.31262578       1.18247962       6.75168170       0.00000000 NULL
P       -0.69112889       3.71069059       5.25908114       0.00000000 NULL
15
Lattice="6.566337712332899 0.5992970007016262 -0.30529663699726345 -2.267344286287018 6.316544761301296 0.10272807371970041 -3.431808949813796 -3.160077595062121 8.297885847402329" Properties=species:S:1:pos:R:3:initial_magmoms:R:1:castep_labels:S:1 n_minim_iter=24 pbc="T T T"
P       -1.03361350       1.52894492       2.13222493       0.00000000 NULL
P       -1.57143160       1.71261152       8.14504415       0.00000000 NULL
P       -3.36837567       0.48316296       7.79331583       0.00000000 NULL
P       -0.11791092      -0.04722063       3.55989597       0.00000000 NULL
P        3.33422769      -1.57527247       5.82106295       0.00000000 NULL
P       -1.33555659       0.24086876       5.42765213       0.00000000 NULL
P       -5.03053906       1.91000242       8.27451999       0.00000000 NULL
P       -2.92321550       1.75880263       5.66643331       0.00000000 NULL
P        0.28235338       2.33122159       3.83933552       0.00000000 NULL
P        2.21732996       2.95548552       3.21015825       0.00000000 NULL
P        0.18787324       1.54977176       0.16728153       0.00000000 NULL
P        3.69760756       3.91874025       0.60848937       0.00000000 NULL
P        1.86041870       1.09648463       4.84065156       0.00000000 NULL
P        0.29571744       1.14479476       6.72402504       0.00000000 NULL
P       -0.68683958       3.68622782       5.23433841       0.00000000 NULL
15
Lattice="6.519150079359716 0.6706876108287347 -0.31481327358641836 -2.1641393873922294 6.280994780268534 -0.014965625566558024 -3.4617503141846018 -3.339580932599501 8.251796594073973" Properties=species:S:1:pos:R:3:initial_magmoms:R:1:castep_labels:S:1 n_minim_iter=25 pbc="T T T"
P       -1.03601907       1.44517122       2.09743622       0.00000000 NULL
P       -1.52043915       1.62250179       8.05737246       0.00000000 NULL
P       -3.29363520       0.33848971       7.72994438       0.00000000 NULL
P       -0.15864524      -0.11761568       3.48817769       0.00000000 NULL
P        3.30118256      -1.65160184       5.76980200       0.00000000 NULL
P       -1.37623691       0.02722753       5.34250658       0.00000000 NULL
P       -4.99595660       1.64794589       8.21418844       0.00000000 NULL
P       -2.91709950       1.65997998       5.50811993       0.00000000 NULL
P        0.34021920       2.34452964       3.67574246       0.00000000 NULL
P        2.31061203       2.91583473       3.11938306       0.00000000 NULL
P        0.19353242       1.54763685       0.12202571       0.00000000 NULL
P        3.72515184       3.94886641       0.56090707       0.00000000 NULL
P        1.85088963       1.00128318       4.69844203       0.00000000 NULL
P        0.23194760       0.99255201       6.60007280       0.00000000 NULL
P       -0.65590829       3.60083111       5.12889237       0.00000000 NULL
