13
Lattice="4.70229 1.2599861255736767e-15 1.9188379171817023e-15 0.19734519470755993 5.656378462101507 -4.296908468888729e-15 0.9277507828847904 2.426639288087272 10.870818185121479" Properties=species:S:1:pos:R:3:initial_magmoms:R:1:castep_labels:S:1 n_minim_iter=1 pbc="T T T"
P        2.91646649       0.47888322       1.59011045       0.00000000 NULL
P        1.43664686       4.96777562       7.03874498       0.00000000 NULL
P        4.38058860       1.07447497       0.30845620       0.00000000 NULL
P        1.57194283       1.70210847       0.68737597       0.00000000 NULL
P        0.29741688       1.94005972       2.25591654       0.00000000 NULL
P        1.38782543       3.86682109       5.35848827       0.00000000 NULL
P        0.66323291       2.35286530       4.19146137       0.00000000 NULL
P        2.98474987       3.81782201       0.16663986       0.00000000 NULL
P        1.35102914       4.60994008       1.14311436       0.00000000 NULL
P        4.93893819       6.87990127       7.43023249       0.00000000 NULL
P        3.38993674       2.26089555       9.83509011       0.00000000 NULL
P        4.30247014       2.85014053       6.24352724       0.00000000 NULL
P        4.04618650       6.29800475       3.36925464       0.00000000 NULL
13
Lattice="4.711657339971416 0.0010698031546989702 0.0006289595516480553 0.1990251870205565 5.6638262567568285 0.001297818272747253 0.9316050513985363 2.4324697767355965 10.898793340377802" Properties=species:S:1:pos:R:3:initial_magmoms:R:1:castep_labels:S:1 n_minim_iter=2 pbc="T T T"
P        2.92246090       0.48021187       1.59463903       0.00000000 NULL
P        1.44159297       4.97631991       7.05793556       0.00000000 NULL
P        4.38951200       1.07689768       0.30971117       0.00000000 NULL
P        1.57580414       1.70515916       0.68945738       0.00000000 NULL
P        0.29867318       1.94340670       2.26206080       0.00000000 NULL
P        1.39226202       3.87352246       5.37291099       0.00000000 NULL
P        0.66565674       2.35692997       4.20279192       0.00000000 NULL
P        2.99173716       3.82335158       0.16830566       0.00000000 NULL
P        1.35480144       4.61655149       1.14728193       0.00000000 NULL
P        4.95134449       6.89158920       7.45121398       0.00000000 NULL
P        3.39849423       2.26686880       9.86055465       0.00000000 NULL
P        4.31250262       2.85632491       6.26031729       0.00000000 NULL
P        4.05609915       6.30777906       3.38005600       0.00000000 NULL
13
Lattice="4.905985353420425 0.023692961985916063 0.01489985835653398 0.2343940919602393 5.815394247111459 0.028367490215728135 1.014611960564159 2.552423355050109 11.47957058625924" Properties=species:S:1:pos:R:3:initial_magmoms:R:1:castep_labels:S:1 n_minim_iter=3 pbc="T T T"
P        3.04717722       0.50759572       1.68940660       0.00000000 NULL
P        1.54648715       5.15129084       7.45677239       0.00000000 NULL
P        4.57469160       1.12691285       0.33655589       0.00000000 NULL
P        1.65640119       1.76785050       0.73291288       0.00000000 NULL
P        0.32545390       2.01202933       2.38970614       0.00000000 NULL
P        1.48605360       4.01082148       5.67258665       0.00000000 NULL
P        0.71724236       2.44009118       4.43832549       0.00000000 NULL
P        3.13712935       3.93634306       0.20368289       0.00000000 NULL
P        1.43378224       4.75146754       1.23421860       0.00000000 NULL
P        5.21128704       7.13100243       7.88806358       0.00000000 NULL
P        3.57877474       2.39003924      10.38975264       0.00000000 NULL
P        4.52259465       2.98363662       6.60970416       0.00000000 NULL
P        4.26315739       6.50767611       3.60561892       0.00000000 NULL
13
Lattice="4.97017066596509 0.03542598236881095 0.03681858251889597 0.25120144896941865 5.81777272844397 0.041139158972109874 1.0840024591108117 2.5783249745010077 11.607217471349164" Properties=species:S:1:pos:R:3:initial_magmoms:R:1:castep_labels:S:1 n_minim_iter=4 pbc="T T T"
P        3.09441789       0.51314267       1.72218793       0.00000000 NULL
P        1.61078746       5.17329950       7.55283833       0.00000000 NULL
P        4.63673731       1.13749284       0.35773877       0.00000000 NULL
P        1.68781943       1.77747524       0.74897071       0.00000000 NULL
P        0.34357724       2.02178252       2.41980383       0.00000000 NULL
P        1.53930451       4.02881929       5.74514351       0.00000000 NULL
P        0.75121887       2.44897289       4.49547261       0.00000000 NULL
P        3.18886590       3.94451950       0.22711997       0.00000000 NULL
P        1.46941888       4.75934718       1.26286428       0.00000000 NULL
P        5.33080984       7.15969157       8.00734041       0.00000000 NULL
P        3.67671830       2.41973203      10.51659213       0.00000000 NULL
P        4.61960862       3.00905078       6.70033799       0.00000000 NULL
P        4.34932865       6.52577339       3.67781755       0.00000000 NULL
13
Lattice="5.0041147364983045 0.045904621782017 0.06605040157039228 0.26523075160654563 5.7822372751857145 0.056308626220963796 1.1636856148129204 2.5917546632263844 11.649683695646262" Properties=species:S:1:pos:R:3:initial_magmoms:R:1:castep_labels:S:1 n_minim_iter=5 pbc="T T T"
P        3.12543994       0.51478485       1.74719444       0.00000000 NULL
P        1.67521991       5.16478577       7.59661995       0.00000000 NULL
P        4.67080093       1.13958242       0.38344085       0.00000000 NULL
P        1.70944662       1.77529376       0.76274036       0.00000000 NULL
P        0.36231577       2.01979905       2.43286046       0.00000000 NULL
P        1.59029781       4.02280248       5.77844291       0.00000000 NULL
P        0.78649271       2.44284416       4.52148518       0.00000000 NULL
P        3.22028414       3.92666653       0.25525640       0.00000000 NULL
P        1.49757506       4.73660532       1.28574909       0.00000000 NULL
P        5.42841193       7.14346566       8.07692540       0.00000000 NULL
P        3.76785613       2.43704275      10.57101614       0.00000000 NULL
P        4.69899727       3.01646829       6.74727059       0.00000000 NULL
P        4.41300434       6.50217096       3.73096362       0.00000000 NULL
13
Lattice="5.031239320699397 0.06275873928498625 0.1165947793775973 0.28664290900050715 5.705674552869144 0.07903949045812445 1.2945840620267168 2.601539360085077 11.675549014644984" Properties=species:S:1:pos:R:3:initial_magmoms:R:1:castep_labels:S:1 n_minim_iter=6 pbc="T T T"
P        3.15960860       0.51417568       1.78433634       0.00000000 NULL
P        1.77581777       5.13255066       7.63991603       0.00000000 NULL
P        4.70059820       1.13900442       0.42550849       0.00000000 NULL
P        1.73553341       1.76573050       0.78218263       0.00000000 NULL
P        0.39154511       2.01073232       2.44478996       0.00000000 NULL
P        1.66768649       3.99891756       5.81092988       0.00000000 NULL
P        0.84220200       2.42260162       4.54774579       0.00000000 NULL
P        3.25400285       3.88398938       0.30106192       0.00000000 NULL
P        1.53580639       4.68416515       1.31743239       0.00000000 NULL
P        5.56222453       7.09049156       8.16188013       0.00000000 NULL
P        3.90204384       2.45448091      10.62213518       0.00000000 NULL
P        4.80722417       3.01677704       6.79883646       0.00000000 NULL
P        4.49387778       6.44138555       3.80432070       0.00000000 NULL
13
Lattice="5.104733824356121 0.08683809337493054 0.18312642973533394 0.31869234172153166 5.605591002109968 0.09934676698593793 1.4753193983344879 2.596581536025258 11.734479150162667" Properties=species:S:1:pos:R:3:initial_magmoms:R:1:castep_labels:S:1 n_minim_iter=7 pbc="T T T"
P        3.22822718       0.50746650       1.84119360       0.00000000 NULL
P        1.92260122       5.08194649       7.71030006       0.00000000 NULL
P        4.77678869       1.13899942       0.47521512       0.00000000 NULL
P        1.78456670       1.75406055       0.80277119       0.00000000 NULL
P        0.43011687       2.00163154       2.46418288       0.00000000 NULL
P        1.78149921       3.96222845       5.86087510       0.00000000 NULL
P        0.92110774       2.38602344       4.59263487       0.00000000 NULL
P        3.32783080       3.82479499       0.35601953       0.00000000 NULL
P        1.59655621       4.61533830       1.35451281       0.00000000 NULL
P        5.78081714       7.00745895       8.28456049       0.00000000 NULL
P        4.10637923       2.46473496      10.71014548       0.00000000 NULL
P        4.98751514       3.00973906       6.87228345       0.00000000 NULL
P        4.63311405       6.35632433       3.90096050       0.00000000 NULL
13
Lattice="5.123990272070771 0.09440605923456637 0.235629679542663 0.32860399041057325 5.499186644918417 0.10802378081702049 1.6044018646460618 2.5647312948044894 11.637466094858913" Properties=species:S:1:pos:R:3:initial_magmoms:R:1:castep_labels:S:1 n_minim_iter=8 pbc="T T T"
P        3.25910890       0.49379465       1.86545358       0.00000000 NULL
P        2.01617512       5.00568692       7.66838059       0.00000000 NULL
P        4.80014586       1.12334837       0.51285633       0.00000000 NULL
P        1.80559005       1.72876978       0.80847054       0.00000000 NULL
P        0.45206285       1.98193702       2.44773860       0.00000000 NULL
P        1.85003095       3.90421005       5.82596341       0.00000000 NULL
P        0.97222285       2.33860903       4.56898246       0.00000000 NULL
P        3.35419362       3.75093747       0.39361142       0.00000000 NULL
P        1.62001503       4.53410817       1.36207985       0.00000000 NULL
P        5.89488380       6.88722103       8.27703266       0.00000000 NULL
P        4.23333465       2.44255159      10.64877496       0.00000000 NULL
P        5.08679431       2.97202154       6.84573561       0.00000000 NULL
P        4.69381256       6.24533794       3.92305320       0.00000000 NULL
13
Lattice="5.166871693840675 0.09918183780246662 0.24811474777606882 0.33614841101409637 5.500968345151525 0.10753867541864605 1.6441899830557023 2.5644126102139135 11.682797539627055" Properties=species:S:1:pos:R:3:initial_magmoms:R:1:castep_labels:S:1 n_minim_iter=9 pbc="T T T"
P        3.29039708       0.49299664       1.88248369       0.00000000 NULL
P        2.05395715       5.00950505       7.70221612       0.00000000 NULL
P        4.84254687       1.12739571       0.52190270       0.00000000 NULL
P        1.82557720       1.73190181       0.81207744       0.00000000 NULL
P        0.46007374       1.98779682       2.45765331       0.00000000 NULL
P        1.88031564       3.90816069       5.84970255       0.00000000 NULL
P        0.99142742       2.33610594       4.58966905       0.00000000 NULL
P        3.38906387       3.75185060       0.40240813       0.00000000 NULL
P        1.63809655       4.53710374       1.36913177       0.00000000 NULL
P        5.96622221       6.89050369       8.32084343       0.00000000 NULL
P        4.29214407       2.44660429      10.69458873       0.00000000 NULL
P        5.14703272       2.97696919       6.87671683       0.00000000 NULL
P        4.74405349       6.24903002       3.94808317       0.00000000 NULL
13
Lattice="5.182269506605255 0.10211747591753781 0.26366207899036914 0.3403258999747378 5.478634485042608 0.10995171871012761 1.6846854179453568 2.558741069926304 11.666933817237375" Properties=species:S:1:pos:R:3:initial_magmoms:R:1:castep_labels:S:1 n_minim_iter=10 pbc="T T T"
P        3.30579458       0.49080045       1.89155920       0.00000000 NULL
P        2.08593079       4.99473290       7.69807416       0.00000000 NULL
P        4.85894842       1.12540881       0.53389775       0.00000000 NULL
P        1.83563334       1.72682344       0.81454471       0.00000000 NULL
P        0.46727702       1.98519123       2.45537257       0.00000000 NULL
P        1.90420524       3.89721758       5.84539692       0.00000000 NULL
P        1.00858841       2.32589879       4.58703361       0.00000000 NULL
P        3.40414480       3.73643145       0.41398141       0.00000000 NULL
P        1.64790215       4.52042460       1.37234928       0.00000000 NULL
P        6.01077074       6.86681043       8.32751973       0.00000000 NULL
P        4.33679571       2.44403228      10.68756884       0.00000000 NULL
P        5.18514219       2.97086070       6.87667434       0.00000000 NULL
P        4.77098184       6.22663864       3.95837864       0.00000000 NULL
13
Lattice="5.201824294289031 0.10521644035356366 0.28005441192410674 0.34487431342300656 5.458272428577683 0.11212883829582708 1.7280387860677537 2.553423165553739 11.655451485548053" Properties=species:S:1:pos:R:3:initial_magmoms:R:1:castep_labels:S:1 n_minim_iter=11 pbc="T T T"
P        3.32413623       0.48876000       1.90194027       0.00000000 NULL
P        2.12081427       4.98143759       7.69690233       0.00000000 NULL
P        4.87940754       1.12398251       0.54669085       0.00000000 NULL
P        1.84745180       1.72230231       0.81735742       0.00000000 NULL
P        0.47501765       1.98343039       2.45395676       0.00000000 NULL
P        1.93038923       3.88748868       5.84320572       0.00000000 NULL
P        1.02723863       2.31618761       4.58606671       0.00000000 NULL
P        3.42230221       3.72228974       0.42611278       0.00000000 NULL
P        1.65905188       4.50530052       1.37593444       0.00000000 NULL
P        6.06113248       6.84528168       8.33788591       0.00000000 NULL
P        4.38618604       2.44196833      10.68477712       0.00000000 NULL
P        5.22823183       2.96565087       6.87964182       0.00000000 NULL
P        4.80213919       6.20629916       3.97050419       0.00000000 NULL
13
Lattice="5.2406605946676725 0.11067642967536623 0.311665831765399 0.35307200502924635 5.421222346933518 0.1159547666222132 1.8115984623849726 2.543310529228327 11.632744387288927" Properties=species:S:1:pos:R:3:initial_magmoms:R:1:castep_labels:S:1 n_minim_iter=12 pbc="T T T"
P        3.36030154       0.48499467       1.92177499       0.00000000 NULL
P        2.18814794       4.95692250       7.69394392       0.00000000 NULL
P        4.91987349       1.12134361       0.57166077       0.00000000 NULL
P        1.87051050       1.71378608       0.82283750       0.00000000 NULL
P        0.48975596       1.98035974       2.45094290       0.00000000 NULL
P        1.98076177       3.86956621       5.83845335       0.00000000 NULL
P        1.06327937       2.29818598       4.58351977       0.00000000 NULL
P        3.45766816       3.69639050       0.44939469       0.00000000 NULL
P        1.68025610       4.47759783       1.38230815       0.00000000 NULL
P        6.15851426       6.80569961       8.35713299       0.00000000 NULL
P        4.48184768       2.43773660      10.67881722       0.00000000 NULL
P        5.31179248       2.95583977       6.88539150       0.00000000 NULL
P        4.86245688       6.16891744       3.99316857       0.00000000 NULL
13
Lattice="5.301085586764677 0.11717295563832476 0.3579904473204788 0.36342257706243375 5.370547487019158 0.1212733671166399 1.9339666132341242 2.529220580545709 11.595854695634703" Properties=species:S:1:pos:R:3:initial_magmoms:R:1:castep_labels:S:1 n_minim_iter=13 pbc="T T T"
P        3.41577615       0.47963753       1.95020573       0.00000000 NULL
P        2.28702961       4.92292094       7.68691302       0.00000000 NULL
P        4.98235016       1.11719596       0.60898030       0.00000000 NULL
P        1.90530016       1.70127056       0.83097842       0.00000000 NULL
P        0.51064095       1.97654084       2.44552165       0.00000000 NULL
P        2.05420200       3.84472250       5.82935442       0.00000000 NULL
P        1.11631674       2.27309299       4.57738974       0.00000000 NULL
P        3.51073866       3.66039681       0.48369858       0.00000000 NULL
P        1.71053416       4.43917755       1.39047058       0.00000000 NULL
P        6.30228387       6.75078189       8.38268873       0.00000000 NULL
P        4.62333595       2.43110520      10.66656855       0.00000000 NULL
P        5.43601107       2.94167160       6.89268444       0.00000000 NULL
P        4.95163812       6.11673829       4.02457615       0.00000000 NULL
13
Lattice="5.427059360192978 0.1249397916615854 0.44568439217267014 0.3780521475155308 5.27409290618696 0.13187891453475656 2.1655611143779243 2.502542562955704 11.500179932568914" Properties=species:S:1:pos:R:3:initial_magmoms:R:1:castep_labels:S:1 n_minim_iter=14 pbc="T T T"
P        3.52929945       0.46809874       2.00100652       0.00000000 NULL
P        2.47548843       4.85682979       7.65750813       0.00000000 NULL
P        5.11133910       1.10614439       0.68061765       0.00000000 NULL
P        1.97559379       1.67462276       0.84549868       0.00000000 NULL
P        0.54670116       1.96996863       2.42940092       0.00000000 NULL
P        2.19174153       3.79625831       5.79878497       0.00000000 NULL
P        1.21774340       2.22454540       4.55374435       0.00000000 NULL
P        3.61661073       3.58972826       0.55044529       0.00000000 NULL
P        1.76528726       4.36415329       1.40146735       0.00000000 NULL
P        6.57907474       6.64340545       8.41519138       0.00000000 NULL
P        4.89478274       2.41535921      10.61845116       0.00000000 NULL
P        5.67811721       2.91168548       6.89348423       0.00000000 NULL
P        5.12285645       6.01337572       4.07584085       0.00000000 NULL
13
Lattice="5.581346252077921 0.13614290534227036 0.5171135174073965 0.3980034537199043 5.210283918215661 0.14759801476543183 2.366913802980837 2.501625357340097 11.414000081546423" Properties=species:S:1:pos:R:3:initial_magmoms:R:1:castep_labels:S:1 n_minim_iter=15 pbc="T T T"
P        3.65813450       0.46530987       2.04438087       0.00000000 NULL
P        2.65474409       4.82598821       7.63394157       0.00000000 NULL
P        5.26765258       1.10671456       0.74117521       0.00000000 NULL
P        2.05856205       1.65806900       0.85910418       0.00000000 NULL
P        0.57540220       1.97769188       2.41514002       0.00000000 NULL
P        2.31997399       3.77531919       5.77109324       0.00000000 NULL
P        1.31486587       2.19338230       4.52877956       0.00000000 NULL
P        3.74328477       3.54540858       0.61384287       0.00000000 NULL
P        1.82684903       4.31631226       1.41015172       0.00000000 NULL
P        6.86289088       6.58859731       8.44576045       0.00000000 NULL
P        5.15048471       2.42325574      10.56825411       0.00000000 NULL
P        5.92406664       2.90923774       6.89330994       0.00000000 NULL
P        5.30878912       5.95090869       4.12226645       0.00000000 NULL
13
Lattice="5.598005542675395 0.13770271989927815 0.5435645303770622 0.40057890789473954 5.163508240371461 0.15467883485374906 2.4321554044103113 2.493312772348274 11.315549858981461" Properties=species:S:1:pos:R:3:initial_magmoms:R:1:castep_labels:S:1 n_minim_iter=16 pbc="T T T"
P        3.68156084       0.46260866       2.04935139       0.00000000 NULL
P        2.70518987       4.79432966       7.58130947       0.00000000 NULL
P        5.28682405       1.10053926       0.76412452       0.00000000 NULL
P        2.07450287       1.64390498       0.86247898       0.00000000 NULL
P        0.58282622       1.97061022       2.39554632       0.00000000 NULL
P        2.35235848       3.75102177       5.72880050       0.00000000 NULL
P        1.34533818       2.17373778       4.49254379       0.00000000 NULL
P        3.75984647       3.51358651       0.63725703       0.00000000 NULL
P        1.83677472       4.27918046       1.40647036       0.00000000 NULL
P        6.92211490       6.53992751       8.41184701       0.00000000 NULL
P        5.21463226       2.41609174      10.49061877       0.00000000 NULL
P        5.97618970       2.89596879       6.85809673       0.00000000 NULL
P        5.34022595       5.90131819       4.11875925       0.00000000 NULL
13
Lattice="5.632190611808515 0.14062998041752467 0.5523284676422754 0.4055347809847745 5.168149864891142 0.1570682246524791 2.4606712549059644 2.4997141331852233 11.325355676718205" Properties=species:S:1:pos:R:3:initial_magmoms:R:1:castep_labels:S:1 n_minim_iter=17 pbc="T T T"
P        3.70766626       0.46417125       2.05839872       0.00000000 NULL
P        2.73428779       4.80260972       7.59231602       0.00000000 NULL
P        5.32102415       1.10477398       0.77211265       0.00000000 NULL
P        2.09198471       1.64618166       0.86574674       0.00000000 NULL
P        0.58673449       1.97722112       2.39780978       0.00000000 NULL
P        2.37302261       3.75797752       5.73515191       0.00000000 NULL
P        1.36166959       2.17465174       4.49666243       0.00000000 NULL
P        3.78691491       3.51738288       0.64672021       0.00000000 NULL
P        1.84954197       4.28378481       1.40895122       0.00000000 NULL
P        6.97477463       6.55025365       8.43075648       0.00000000 NULL
P        5.25678840       2.42383528      10.50200782       0.00000000 NULL
P        6.02089400       2.90474783       6.87023771       0.00000000 NULL
P        5.37714618       5.90835778       4.13139073       0.00000000 NULL
13
Lattice="5.652115270703548 0.14258289882301564 0.5629556540278408 0.4087201398835633 5.158908986400612 0.1600250870954098 2.490178230748512 2.50092540194651 11.305014932376972" Properties=species:S:1:pos:R:3:initial_magmoms:R:1:castep_labels:S:1 n_minim_iter=18 pbc="T T T"
P        3.72565871       0.46444686       2.06373523       0.00000000 NULL
P        2.76047085       4.79891233       7.58403325       0.00000000 NULL
P        5.34167683       1.10550342       0.78160863       0.00000000 NULL
P        2.10429854       1.64388572       0.86828766       0.00000000 NULL
P        0.59035974       1.97857925       2.39384455       0.00000000 NULL
P        2.39063517       3.75540194       5.72738549       0.00000000 NULL
P        1.37718723       2.17035560       4.48928725       0.00000000 NULL
P        3.80360228       3.51162153       0.65705684       0.00000000 NULL
P        1.85812727       4.27695102       1.40908871       0.00000000 NULL
P        7.01414531       6.54355599       8.43088279       0.00000000 NULL
P        5.29217254       2.42593576      10.48758162       0.00000000 NULL
P        6.05457946       2.90603029       6.86709221       0.00000000 NULL
P        5.40222977       5.89974070       4.13626909       0.00000000 NULL
13
Lattice="5.777447794936334 0.15547654010859016 0.6282690511800456 0.42948982577356254 5.10437886246351 0.17837882519195095 2.6725522717970693 2.509848719361944 11.183031846496373" Properties=species:S:1:pos:R:3:initial_magmoms:R:1:castep_labels:S:1 n_minim_iter=19 pbc="T T T"
P        3.83867896       0.46706670       2.09696181       0.00000000 NULL
P        2.92353266       4.77857665       7.53508479       0.00000000 NULL
P        5.47183420       1.11142049       0.84039971       0.00000000 NULL
P        2.18239925       1.63090284       0.88490406       0.00000000 NULL
P        0.61232135       1.98755917       2.36978066       0.00000000 NULL
P        2.49966310       3.74133144       5.68104165       0.00000000 NULL
P        1.47452430       2.14507926       4.44495986       0.00000000 NULL
P        3.90889568       3.47860414       0.72103350       0.00000000 NULL
P        1.91219878       4.23704137       1.41006345       0.00000000 NULL
P        7.26040688       6.50627053       8.43375016       0.00000000 NULL
P        5.51131023       2.44036922      10.40144199       0.00000000 NULL
P        6.26463562       2.91635949       6.85011323       0.00000000 NULL
P        5.55946174       5.84998686       4.16704729       0.00000000 NULL
13
Lattice="5.9394673131560465 0.1922850992564287 0.7231357176468304 0.4805664107043769 5.003801385883897 0.2109115155618834 2.942827629894075 2.5281714863235933 10.941949239801696" Properties=species:S:1:pos:R:3:initial_magmoms:R:1:castep_labels:S:1 n_minim_iter=20 pbc="T T T"
P        3.99891530       0.48033299       2.14034656       0.00000000 NULL
P        3.17635913       4.74330068       7.42689963       0.00000000 NULL
P        5.65219146       1.13658436       0.92774174       0.00000000 NULL
P        2.31338325       1.61257123       0.91236182       0.00000000 NULL
P        0.63783232       2.00318195       2.31934656       0.00000000 NULL
P        2.65680745       3.71683511       5.58108136       0.00000000 NULL
P        1.63801256       2.09754713       4.35070130       0.00000000 NULL
P        4.06445994       3.42893896       0.82529862       0.00000000 NULL
P        1.99946369       4.16721243       1.39943505       0.00000000 NULL
P        7.62123793       6.44934259       8.40501903       0.00000000 NULL
P        5.81349830       2.47243241      10.21233742       0.00000000 NULL
P        6.56179064       2.95194310       6.79469496       0.00000000 NULL
P        5.78434279       5.76620553       4.19636670       0.00000000 NULL
13
Lattice="6.028262538202838 0.1932888029747782 0.7268653132346037 0.4855003129245242 5.101764815754796 0.20555489450289507 2.9694868155182914 2.55978313055308 10.933337891972927" Properties=species:S:1:pos:R:3:initial_magmoms:R:1:castep_labels:S:1 n_minim_iter=21 pbc="T T T"
P        4.06763239       0.47312540       2.15786883       0.00000000 NULL
P        3.22311912       4.82618016       7.42675439       0.00000000 NULL
P        5.75273010       1.16438724       0.92937545       0.00000000 NULL
P        2.39151647       1.64321830       0.91771457       0.00000000 NULL
P        0.60855088       2.06950406       2.30975729       0.00000000 NULL
P        2.66046609       3.78667008       5.56162179       0.00000000 NULL
P        1.69786008       2.09992784       4.33105668       0.00000000 NULL
P        4.13588881       3.49020930       0.85119239       0.00000000 NULL
P        2.01184791       4.24741459       1.36758838       0.00000000 NULL
P        7.70823909       6.55162331       8.41980071       0.00000000 NULL
P        5.86041644       2.50067164      10.18396410       0.00000000 NULL
P        6.64773966       3.02421131       6.79172617       0.00000000 NULL
P        5.83659750       5.85423688       4.19603644       0.00000000 NULL
13
Lattice="5.919809985573193 0.1943503103904862 0.7373641602472061 0.4822256738802155 4.998137115616498 0.21951189829097845 2.972908555142795 2.541492927483564 10.73694112132213" Properties=species:S:1:pos:R:3:initial_magmoms:R:1:castep_labels:S:1 n_minim_iter=22 pbc="T T T"
P        4.00520009       0.47071805       2.13315036       0.00000000 NULL
P        3.20481995       4.75161605       7.30773671       0.00000000 NULL
P        5.65206438       1.14651601       0.93912399       0.00000000 NULL
P        2.35661440       1.61351337       0.91535209       0.00000000 NULL
P        0.60784790       2.03608467       2.27249169       0.00000000 NULL
P        2.63959789       3.72760643       5.47340239       0.00000000 NULL
P        1.69345931       2.06807846       4.25882540       0.00000000 NULL
P        4.06372939       3.42410809       0.86299727       0.00000000 NULL
P        1.98614174       4.16607818       1.35869411       0.00000000 NULL
P        7.61294718       6.44593924       8.30572891       0.00000000 NULL
P        5.80495731       2.48112365      10.01453155       0.00000000 NULL
P        6.56501324       2.98688155       6.69319031       0.00000000 NULL
P        5.75422671       5.74933636       4.15504342       0.00000000 NULL
13
Lattice="5.947964586067275 0.2034785181355695 0.7433703462033003 0.49438757219003626 5.012844149729209 0.22274373286740698 2.9970592297521748 2.555165729699204 10.758437899445115" Properties=species:S:1:pos:R:3:initial_magmoms:R:1:castep_labels:S:1 n_minim_iter=23 pbc="T T T"
P        4.02502616       0.47669404       2.14087632       0.00000000 NULL
P        3.23392375       4.77123834       7.32572459       0.00000000 NULL
P        5.68273354       1.15867105       0.94522190       0.00000000 NULL
P        2.37479341       1.62188828       0.92030094       0.00000000 NULL
P        0.61338333       2.04562698       2.27740505       0.00000000 NULL
P        2.66046550       3.74382577       5.48520674       0.00000000 NULL
P        1.71126560       2.07448468       4.26756943       0.00000000 NULL
P        4.09077846       3.43960874       0.87155778       0.00000000 NULL
P        2.00225546       4.18106662       1.36221924       0.00000000 NULL
P        7.66347658       6.47595457       8.33005548       0.00000000 NULL
P        5.84023270       2.49811081      10.03540905       0.00000000 NULL
P        6.60392139       3.00778223       6.71067919       0.00000000 NULL
P        5.79298809       5.77328657       4.17062591       0.00000000 NULL
13
Lattice="5.9513513577085 0.20795954337803332 0.7483454962430788 0.49991992722951034 5.009428321034202 0.22585455721242476 3.0115415061477213 2.5600810409709127 10.743839050356275" Properties=species:S:1:pos:R:3:initial_magmoms:R:1:castep_labels:S:1 n_minim_iter=24 pbc="T T T"
P        4.02913145       0.47884553       2.14216533       0.00000000 NULL
P        3.24812081       4.77325416       7.31944372       0.00000000 NULL
P        5.68862397       1.16289445       0.94995458       0.00000000 NULL
P        2.38171244       1.62305397       0.92285683       0.00000000 NULL
P        0.61554539       2.04763782       2.27486984       0.00000000 NULL
P        2.66910811       3.74599514       5.47928446       0.00000000 NULL
P        1.72174766       2.07346692       4.26236722       0.00000000 NULL
P        4.09738922       3.44038041       0.87826841       0.00000000 NULL
P        2.00718552       4.18017420       1.36200659       0.00000000 NULL
P        7.68005000       6.47957884       8.32813045       0.00000000 NULL
P        5.85376028       2.50431928      10.02380406       0.00000000 NULL
P        6.61634795       3.01482201       6.70702576       0.00000000 NULL
P        5.80433903       5.77389568       4.17361045       0.00000000 NULL
13
Lattice="5.967170361947226 0.22256176229709043 0.7661388905987688 0.5181488074270802 5.001999188380596 0.23467448378617342 3.063333115475532 2.5750275347795553 10.689848379641298" Properties=species:S:1:pos:R:3:initial_magmoms:R:1:castep_labels:S:1 n_minim_iter=25 pbc="T T T"
P        4.04599294       0.48437306       2.14696700       0.00000000 NULL
P        3.29899489       4.78135050       7.29468178       0.00000000 NULL
P        5.71378451       1.17780396       0.96631363       0.00000000 NULL
P        2.40946167       1.62823162       0.93179885       0.00000000 NULL
P        0.62118071       2.05698181       2.26460024       0.00000000 NULL
P        2.69883586       3.75499165       5.45536779       0.00000000 NULL
P        1.76145518       2.06816649       4.24214787       0.00000000 NULL
P        4.12306436       3.44533924       0.90215254       0.00000000 NULL
P        2.02316474       4.18032282       1.35791349       0.00000000 NULL
P        7.74010390       6.49340178       8.31856471       0.00000000 NULL
P        5.90320701       2.52331681       9.97969735       0.00000000 NULL
P        6.66317055       3.03992767       6.69212441       0.00000000 NULL
P        5.84550093       5.77820172       4.18210446       0.00000000 NULL
13
Lattice="5.96254990869728 0.2240240920629182 0.7839516033541861 0.5197139313019689 4.994900705880238 0.22931713819937083 3.1043558255784545 2.560511572541031 10.557281898712693" Properties=species:S:1:pos:R:3:initial_magmoms:R:1:castep_labels:S:1 n_minim_iter=26 pbc="T T T"
P        4.04938196       0.46993954       2.14316480       0.00000000 NULL
P        3.33196178       4.76752243       7.21166710       0.00000000 NULL
P        5.72400240       1.18225795       0.97791472       0.00000000 NULL
P        2.44233229       1.62957915       0.93692462       0.00000000 NULL
P        0.60698518       2.07095023       2.23264542       0.00000000 NULL
P        2.70308626       3.75139963       5.37979835       0.00000000 NULL
P        1.81127808       2.03673147       4.18502478       0.00000000 NULL
P        4.12963915       3.44249675       0.92680433       0.00000000 NULL
P        2.01048476       4.17713016       1.32313237       0.00000000 NULL
P        7.75127370       6.47245257       8.24659449       0.00000000 NULL
P        5.92566193       2.50706336       9.85774690       0.00000000 NULL
P        6.68253523       3.04806799       6.62732969       0.00000000 NULL
P        5.84757538       5.75917926       4.15753571       0.00000000 NULL
13
Lattice="5.989534492631561 0.3189650543053924 0.8027999531810698 0.6350507761095283 4.997515132131132 0.25028863269050233 3.202248431511922 2.617439656116839 10.424590237841636" Properties=species:S:1:pos:R:3:initial_magmoms:R:1:castep_labels:S:1 n_minim_iter=27 pbc="T T T"
P        4.07178873       0.51006550       2.14085632       0.00000000 NULL
P        3.47990553       4.82233417       7.15042107       0.00000000 NULL
P        5.79675553       1.27910463       0.99259744       0.00000000 NULL
P        2.54128296       1.67603941       0.95733212       0.00000000 NULL
P        0.62705733       2.11168473       2.20911359       0.00000000 NULL
P        2.79417374       3.80972813       5.30663471       0.00000000 NULL
P        1.93414198       2.02480134       4.13125785       0.00000000 NULL
P        4.23391413       3.51233155       0.98327884       0.00000000 NULL
P        2.07914176       4.21178022       1.29241033       0.00000000 NULL
P        7.91553979       6.58795633       8.19845946       0.00000000 NULL
P        6.01976808       2.59974846       9.73067764       0.00000000 NULL
P        6.78563307       3.18073779       6.56788265       0.00000000 NULL
P        5.99938523       5.83480209       4.17193614       0.00000000 NULL
13
Lattice="5.8648897377455675 0.22862175216314512 0.8112047907787524 0.5211458591744228 4.937564824971829 0.2258993644182467 3.150464638100206 2.5279716036872357 10.293422192750704" Properties=species:S:1:pos:R:3:initial_magmoms:R:1:castep_labels:S:1 n_minim_iter=28 pbc="T T T"
P        3.99768276       0.44089883       2.12700824       0.00000000 NULL
P        3.35589032       4.71045531       7.05057713       0.00000000 NULL
P        5.65684973       1.17985750       0.99384056       0.00000000 NULL
P        2.46315608       1.62287176       0.94668250       0.00000000 NULL
P        0.58037260       2.07892168       2.17446852       0.00000000 NULL
P        2.68868326       3.72314294       5.22913874       0.00000000 NULL
P        1.88507485       1.96552992       4.07639849       0.00000000 NULL
P        4.08329102       3.41602059       0.97416512       0.00000000 NULL
P        1.95324293       4.13830852       1.25872051       0.00000000 NULL
P        7.66526066       6.39426406       8.09250461       0.00000000 NULL
P        5.90525293       2.47075616       9.61555719       0.00000000 NULL
P        6.62662646       3.04431705       6.49235242       0.00000000 NULL
P        5.78530308       5.68397982       4.11527597       0.00000000 NULL
13
Lattice="5.943929367088066 0.24842318160872917 0.809454377456439 0.5482820991930153 4.992326343908561 0.22024645977054488 3.172230964651453 2.5442921068631223 10.385678643872739" Properties=species:S:1:pos:R:3:initial_magmoms:R:1:castep_labels:S:1 n_minim_iter=29 pbc="T T T"
P        4.04613559       0.45249799       2.14144083       0.00000000 NULL
P        3.40105244       4.75775590       7.10871392       0.00000000 NULL
P        5.73855909       1.20923752       0.99177735       0.00000000 NULL
P        2.50293572       1.64694226       0.95039467       0.00000000 NULL
P        0.58938243       2.10075872       2.19206618       0.00000000 NULL
P        2.72662025       3.76287106       5.26971858       0.00000000 NULL
P        1.90930550       1.98242309       4.10996270       0.00000000 NULL
P        4.15249753       3.46475205       0.97460559       0.00000000 NULL
P        1.98994638       4.18710721       1.26017464       0.00000000 NULL
P        7.77001844       6.47142525       8.15069058       0.00000000 NULL
P        5.96715967       2.49674989       9.69513862       0.00000000 NULL
P        6.70673045       3.08598342       6.54020294       0.00000000 NULL
P        5.87527399       5.75458257       4.14035147       0.00000000 NULL
