8
Lattice="5.10336 0.0 8.021036206887055e-16 0.0 5.534070000000002 0.0 -1.476114319372618 0.0 6.320417451889008" Properties=species:S:1:pos:R:3:initial_magmoms:R:1:castep_labels:S:1 n_minim_iter=1 pbc="T T T"
P        0.43534153       4.66173621       1.87284967       0.00000000 NULL
P        3.19190415       1.89470121       4.44756779       0.00000000 NULL
P       -0.55446830       0.15317420       3.35635214       0.00000000 NULL
P        4.18171398       2.92020920       2.96406532       0.00000000 NULL
P        1.96946169       3.50801266       1.30787324       0.00000000 NULL
P        1.65778399       0.74097766       5.01254422       0.00000000 NULL
P        4.48745618       0.10108588       0.40900053       0.00000000 NULL
P       -0.86021050       2.86812088       5.91141693       0.00000000 NULL
8
Lattice="5.106294391555104 0.0 -0.0011139150698452312 0.0 5.535440261557719 0.0 -1.4783426367244232 0.0 6.326199023354055" Properties=species:S:1:pos:R:3:initial_magmoms:R:1:castep_labels:S:1 n_minim_iter=2 pbc="T T T"
P        0.43517076       4.66288756       1.87444604       0.00000000 NULL
P        3.19278100       1.89516743       4.45063907       0.00000000 NULL
P       -0.55557204       0.15329203       3.35952120       0.00000000 NULL
P        4.18352379       2.92101216       2.96556391       0.00000000 NULL
P        1.97053572       3.50871068       1.30853423       0.00000000 NULL
P        1.65741604       0.74099055       5.01655089       0.00000000 NULL
P        4.48987197       0.10120450       0.40827555       0.00000000 NULL
P       -0.86192022       2.86892463       5.91680956       0.00000000 NULL
8
Lattice="5.2183118413182425 -1.0719404825283411e-17 -0.04509238656421114 -1.1610483635299051e-17 5.585779538413344 4.5256568886979893e-17 -1.5652094970586665 5.482242129499895e-17 6.551118814281951" Properties=species:S:1:pos:R:3:initial_magmoms:R:1:castep_labels:S:1 n_minim_iter=3 pbc="T T T"
P        0.42807683       4.70519410       1.93651612       0.00000000 NULL
P        3.22502551       1.91230433       4.56951031       0.00000000 NULL
P       -0.59874737       0.15776395       3.48292257       0.00000000 NULL
P        4.25184971       2.95065372       3.02310386       0.00000000 NULL
P        2.01142694       3.53400128       1.33385996       0.00000000 NULL
P        1.64167540       0.74111151       5.17216647       0.00000000 NULL
P        4.58193231       0.10576232       0.37943188       0.00000000 NULL
P       -0.92882997       2.89865209       6.12659456       0.00000000 NULL
8
Lattice="5.212450379188154 -1.968159564578975e-17 -0.08205346549178327 -2.152857078701026e-17 5.52743238976112 6.439560426127276e-17 -1.6092897226574432 7.856999071148345e-17 6.649413044850683" Properties=species:S:1:pos:R:3:initial_magmoms:R:1:castep_labels:S:1 n_minim_iter=4 pbc="T T T"
P        0.41367530       4.65638883       1.96156236       0.00000000 NULL
P        3.18948536       1.89267263       4.60579723       0.00000000 NULL
P       -0.62319632       0.15763948       3.53841537       0.00000000 NULL
P        4.22635697       2.92135568       3.02894422       0.00000000 NULL
P        2.00587828       3.49244940       1.33638625       0.00000000 NULL
P        1.59728237       0.72873320       5.23097334       0.00000000 NULL
P        4.57213026       0.10742742       0.34939391       0.00000000 NULL
P       -0.96896960       2.87114361       6.21796568       0.00000000 NULL
8
Lattice="5.165357598689544 -3.6701330710235384e-17 -0.15385101104161575 -4.0642838556928235e-17 5.345866244900846 1.0549006036548476e-16 -1.6845883753613307 1.281820777363704e-16 6.856900864514877" Properties=species:S:1:pos:R:3:initial_magmoms:R:1:castep_labels:S:1 n_minim_iter=5 pbc="T T T"
P        0.38256364       4.50474135       2.01662505       0.00000000 NULL
P        3.09820558       1.83180823       4.68642482       0.00000000 NULL
P       -0.66690716       0.15527445       3.65656713       0.00000000 NULL
P        4.14767638       2.82820757       3.04648273       0.00000000 NULL
P        1.98235326       3.36800181       1.34405353       0.00000000 NULL
P        1.49841596       0.69506869       5.35899634       0.00000000 NULL
P        4.52219871       0.10950597       0.28997576       0.00000000 NULL
P       -1.04142948       2.78243909       6.41307410       0.00000000 NULL
8
Lattice="5.106133801623976 -3.3540044924260605e-17 -0.21285482435181854 -3.980557982753227e-17 5.101277508872131 1.0873074916525116e-16 -1.7405334069635876 1.2119820579778825e-16 7.08847374942634" Properties=species:S:1:pos:R:3:initial_magmoms:R:1:castep_labels:S:1 n_minim_iter=6 pbc="T T T"
P        0.35481499       4.30076157       2.08265634       0.00000000 NULL
P        3.01078540       1.75012281       4.79296259       0.00000000 NULL
P       -0.70098445       0.15029701       3.78828362       0.00000000 NULL
P        4.06658485       2.70093576       3.08733531       0.00000000 NULL
P        1.95687026       3.20470790       1.36181415       0.00000000 NULL
P        1.40873013       0.65406914       5.51380478       0.00000000 NULL
P        4.46448516       0.10944203       0.24125499       0.00000000 NULL
P       -1.09888476       2.66008078       6.63436394       0.00000000 NULL
8
Lattice="5.0763454338441765 -4.8855454285093386e-17 -0.2691532977173298 -5.408055013323996e-17 4.871525867853229 2.1610718731224284e-16 -1.8016419349419366 2.632591805084599e-16 7.358081061598332" Properties=species:S:1:pos:R:3:initial_magmoms:R:1:castep_labels:S:1 n_minim_iter=7 pbc="T T T"
P        0.33002491       4.11010328       2.16195887       0.00000000 NULL
P        2.94467858       1.67434035       4.92696890       0.00000000 NULL
P       -0.73640198       0.14490425       3.94063862       0.00000000 NULL
P        4.01110547       2.58066718       3.14828915       0.00000000 NULL
P        1.94383926       3.05167976       1.38741598       0.00000000 NULL
P        1.33086424       0.61591682       5.70151180       0.00000000 NULL
P        4.43504511       0.10879128       0.19546008       0.00000000 NULL
P       -1.16034161       2.54455422       6.89346770       0.00000000 NULL
8
Lattice="4.907210521858901 -4.3938679940690426e-17 -0.4788243461093451 -5.3939579054599105e-17 4.085614372719344 4.1608284102936643e-16 -2.0123944759983106 4.776277512608302e-16 8.319167618068207" Properties=species:S:1:pos:R:3:initial_magmoms:R:1:castep_labels:S:1 n_minim_iter=8 pbc="T T T"
P        0.23361813       3.46012423       2.45138752       0.00000000 NULL
P        2.66119791       1.41731705       5.38895576       0.00000000 NULL
P       -0.86070109       0.12493578       4.49406445       0.00000000 NULL
P        3.75551713       2.16774297       3.34627883       0.00000000 NULL
P        1.87331835       2.53030152       1.46937912       0.00000000 NULL
P        1.02149770       0.48749433       6.37096416       0.00000000 NULL
P        4.28897748       0.10379578       0.00390170       0.00000000 NULL
P       -1.39416144       2.14660296       7.83644158       0.00000000 NULL
8
Lattice="4.70847202476679 -5.739715771439816e-17 -0.5071376746596046 -6.874340975730333e-17 3.8411869169742685 4.052275862524508e-16 -1.9899761701217653 4.435946745949893e-16 8.229578088165379" Properties=species:S:1:pos:R:3:initial_magmoms:R:1:castep_labels:S:1 n_minim_iter=9 pbc="T T T"
P        0.22783823       3.26229648       2.40151015       0.00000000 NULL
P        2.49065762       1.34170302       5.32093027       0.00000000 NULL
P       -0.84987576       0.11847128       4.53299580       0.00000000 NULL
P        3.56837161       2.03906474       3.18944462       0.00000000 NULL
P        1.80850488       2.36933939       1.43352094       0.00000000 NULL
P        0.90999098       0.44874593       6.28891948       0.00000000 NULL
P        4.13452354       0.09698060      -0.09545965       0.00000000 NULL
P       -1.41602769       2.01757405       7.81790007       0.00000000 NULL
8
Lattice="4.821129862280598 -5.0568759872798166e-17 -0.5463775278880678 -6.633508391948719e-17 3.9323628119544605 4.121850202334197e-16 -2.071159567001162 4.320104698836798e-16 8.55488478980351" Properties=species:S:1:pos:R:3:initial_magmoms:R:1:castep_labels:S:1 n_minim_iter=10 pbc="T T T"
P        0.22410106       3.34197119       2.49355506       0.00000000 NULL
P        2.52586923       1.37578979       5.51495221       0.00000000 NULL
P       -0.88847993       0.12108400       4.72623654       0.00000000 NULL
P        3.63845022       2.08726541       3.28227074       0.00000000 NULL
P        1.85123434       2.42356052       1.47801444       0.00000000 NULL
P        0.89873595       0.45737912       6.53049284       0.00000000 NULL
P        4.23251788       0.09926077      -0.12003019       0.00000000 NULL
P       -1.48254759       2.06544217       8.12853746       0.00000000 NULL
8
Lattice="4.810657833624332 -5.184828914221279e-17 -0.5387152608757878 -6.714003661048195e-17 3.9068165383115305 4.144475500522911e-16 -2.0586410228267638 4.292629355485253e-16 8.604581876979914" Properties=species:S:1:pos:R:3:initial_magmoms:R:1:castep_labels:S:1 n_minim_iter=11 pbc="T T T"
P        0.22837423       3.32144844       2.50826901       0.00000000 NULL
P        2.52364258       1.36804017       5.55759761       0.00000000 NULL
P       -0.88262726       0.12045448       4.76756511       0.00000000 NULL
P        3.63464407       2.07386275       3.29830152       0.00000000 NULL
P        1.85122502       2.40670731       1.49203731       0.00000000 NULL
P        0.90079179       0.45329904       6.57382932       0.00000000 NULL
P        4.22514276       0.09837949      -0.11592531       0.00000000 NULL
P       -1.47312595       2.05178776       8.18179194       0.00000000 NULL
8
Lattice="4.797881923639951 -5.0707530104309934e-17 -0.5367882825570909 -6.883339627117712e-17 3.866399007171267 4.2714333065686876e-16 -2.052559145188136 4.438020718992518e-16 8.679024767090405" Properties=species:S:1:pos:R:3:initial_magmoms:R:1:castep_labels:S:1 n_minim_iter=12 pbc="T T T"
P        0.23135546       3.28912432       2.52834623       0.00000000 NULL
P        2.51396731       1.35592481       5.61389026       0.00000000 NULL
P       -0.88086665       0.11944225       4.83085149       0.00000000 NULL
P        3.62618943       2.05264175       3.31138501       0.00000000 NULL
P        1.85032661       2.37992758       1.50795048       0.00000000 NULL
P        0.89499617       0.44672808       6.63428602       0.00000000 NULL
P        4.21573030       0.09697166      -0.11844034       0.00000000 NULL
P       -1.47040752       2.03017117       8.26067683       0.00000000 NULL
8
Lattice="4.786565507096976 -5.1273062486863817e-17 -0.5463737597621384 -7.084440880358426e-17 3.808391149729033 4.2152180823064796e-16 -2.061157381038322 4.150804122430861e-16 8.774606940182107" Properties=species:S:1:pos:R:3:initial_magmoms:R:1:castep_labels:S:1 n_minim_iter=13 pbc="T T T"
P        0.23121163       3.24288129       2.55134628       0.00000000 NULL
P        2.49419650       1.33868572       5.67688691       0.00000000 NULL
P       -0.88791996       0.11795239       4.91548340       0.00000000 NULL
P        3.61332808       2.02214797       3.31274979       0.00000000 NULL
P        1.84875303       2.34138233       1.52195405       0.00000000 NULL
P        0.87665509       0.43718675       6.70627914       0.00000000 NULL
P        4.20668620       0.09494973      -0.13251011       0.00000000 NULL
P       -1.48127808       1.99914531       8.36074330       0.00000000 NULL
8
Lattice="4.774965622219426 -6.399404642705338e-17 -0.5932401833633923 -8.363235981094307e-17 3.593026590808673 4.562425245042213e-16 -2.115845391577685 4.4352619501331876e-16 9.079836109432247" Properties=species:S:1:pos:R:3:initial_magmoms:R:1:castep_labels:S:1 n_minim_iter=14 pbc="T T T"
P        0.22916848       3.07133076       2.61767911       0.00000000 NULL
P        2.42995175       1.27481747       5.86891682       0.00000000 NULL
P       -0.92765603       0.11220296       5.20794864       0.00000000 NULL
P        3.58677626       1.90871626       3.27864730       0.00000000 NULL
P        1.85172505       2.19827799       1.55803218       0.00000000 NULL
P        0.80739518       0.40176469       6.92856376       0.00000000 NULL
P        4.19463803       0.08752426      -0.19141816       0.00000000 NULL
P       -1.53551780       1.88403755       8.67801410       0.00000000 NULL
8
Lattice="4.928158702586718 -5.683163260754359e-17 -0.5970149683123628 -8.145492176399041e-17 3.487942386676312 4.448601285990573e-16 -2.16483051436494 4.3178119812874583e-16 8.83688256388407" Properties=species:S:1:pos:R:3:initial_magmoms:R:1:castep_labels:S:1 n_minim_iter=15 pbc="T T T"
P        0.26158938       2.99691665       2.52153220       0.00000000 NULL
P        2.50173881       1.25294546       5.71833541       0.00000000 NULL
P       -0.95361636       0.10816897       5.14886483       0.00000000 NULL
P        3.71694455       1.85214016       3.09100277       0.00000000 NULL
P        1.92917529       2.12191016       1.50895607       0.00000000 NULL
P        0.83415289       0.37793897       6.73091154       0.00000000 NULL
P        4.30800133       0.08238010      -0.19447130       0.00000000 NULL
P       -1.54467315       1.82635130       8.43433891       0.00000000 NULL
8
Lattice="5.008078354030416 -6.35700474780548e-17 -0.5613982542112187 -8.322732275127642e-17 3.5200499793936086 4.294627183687242e-16 -2.1438361186161585 3.5756573185032797e-16 9.169185118794841" Properties=species:S:1:pos:R:3:initial_magmoms:R:1:castep_labels:S:1 n_minim_iter=16 pbc="T T T"
P        0.29515801       3.03181445       2.62136260       0.00000000 NULL
P        2.56908423       1.27178946       5.98642428       0.00000000 NULL
P       -0.93817807       0.10878125       5.36961403       0.00000000 NULL
P        3.80242030       1.86880624       3.23817285       0.00000000 NULL
P        1.97683397       2.13656481       1.59382602       0.00000000 NULL
P        0.88740826       0.37653982       7.01396086       0.00000000 NULL
P        4.37449311       0.08108983      -0.13750383       0.00000000 NULL
P       -1.51025087       1.84111482       8.74529070       0.00000000 NULL
8
Lattice="4.9119878854886005 -6.444874699979194e-17 -0.5572464314938184 -8.311796295201411e-17 3.4769376981480877 4.1935766740005906e-16 -2.110900607633197 3.563008094262392e-16 8.936015031788292" Properties=species:S:1:pos:R:3:initial_magmoms:R:1:castep_labels:S:1 n_minim_iter=17 pbc="T T T"
P        0.28979157       2.99631780       2.54972738       0.00000000 NULL
P        2.51129571       1.25784895       5.82904123       0.00000000 NULL
P       -0.92526776       0.10754777       5.23718251       0.00000000 NULL
P        3.72635504       1.84601662       3.14158610       0.00000000 NULL
P        1.93694401       2.10920256       1.54932751       0.00000000 NULL
P        0.86414327       0.37073371       6.82944110       0.00000000 NULL
P        4.29046130       0.07955632      -0.14397894       0.00000000 NULL
P       -1.48937403       1.81802517       8.52274756       0.00000000 NULL
