12
Lattice="5.828547273177108 0.0 0.0 0.0 5.828547273177108 0.0 0.0 0.0 9.17580036422938" Properties=species:S:1:pos:R:3:initial_magmoms:R:1:castep_labels:S:1:forces:R:3 n_minim_iter=1 energy=-57.824895070437 stress="0.0020416405111316743 -0.0 0.0 -0.0 0.0020416405111316743 0.0 0.0 0.0 0.0013750485092963289" free_energy=-57.824895070437 pbc="T T T"
P        1.13803425       2.91560049       5.99458535       0.00000000 NULL      -0.49846900      -0.07670000      -0.03461200
P        4.69051303       2.91294678       5.99458535       0.00000000 NULL       0.49846900       0.07670000      -0.03461200
P        2.91294678       1.13803425       3.18121501       0.00000000 NULL       0.07670000      -0.49846900       0.03461200
P        2.91560049       4.69051303       3.18121501       0.00000000 NULL      -0.07670000       0.49846900       0.03461200
P        4.30571929       5.77003147       1.73601151       0.00000000 NULL      -0.31159300       0.81899300      -0.34884300
P        1.52282798       0.05851580       1.73601151       0.00000000 NULL       0.31159300      -0.81899300      -0.34884300
P        0.05851580       4.30571929       7.43978885       0.00000000 NULL      -0.81899300      -0.31159300       0.34884300
P        5.77003147       1.52282798       7.43978885       0.00000000 NULL       0.81899300       0.31159300       0.34884300
P        5.38753941       3.93537424       2.33613319       0.00000000 NULL       0.26014900       0.52342700       0.27590100
P        0.44100786       1.89317303       2.33613319       0.00000000 NULL      -0.26014900      -0.52342700       0.27590100
P        1.89317303       5.38753941       6.83966718       0.00000000 NULL      -0.52342700       0.26014900      -0.27590100
P        3.93537424       0.44100786       6.83966718       0.00000000 NULL       0.52342700      -0.26014900      -0.27590100
12
Lattice="5.743382430105588 0.0 0.0 0.0 5.743382430105588 0.0 0.0 0.0 9.085284610842084" Properties=species:S:1:pos:R:3:initial_magmoms:R:1:castep_labels:S:1:forces:R:3 n_minim_iter=2 energy=-57.914977656275 stress="-0.011693570716715748 0.0 0.0 0.0 -0.011693570716715748 -0.0 0.0 -0.0 -0.004416479665691898" free_energy=-57.914977656275 pbc="T T T"
P        1.11004525       2.87125065       5.93465844       0.00000000 NULL       0.14906600      -0.18235600      -0.36544200
P        4.63333718       2.87213178       5.93465844       0.00000000 NULL      -0.14906600       0.18235600      -0.36544200
P        2.87213178       1.11004525       3.15062617       0.00000000 NULL       0.18235600       0.14906600       0.36544200
P        2.87125065       4.63333718       3.15062617       0.00000000 NULL      -0.18235600      -0.14906600       0.36544200
P        4.23570412       5.70438699       1.71089778       0.00000000 NULL      -0.16560800       0.90181300      -0.69593700
P        1.50767831       0.03899544       1.71089778       0.00000000 NULL       0.16560800      -0.90181300      -0.69593700
P        0.03899544       4.23570412       7.37438683       0.00000000 NULL      -0.90181300      -0.16560800       0.69593700
P        5.70438699       1.50767831       7.37438683       0.00000000 NULL       0.90181300       0.16560800       0.69593700
P        5.31474739       3.88980105       2.31940637       0.00000000 NULL       0.39629600       0.41777700       0.25382700
P        0.42863504       1.85358138       2.31940637       0.00000000 NULL      -0.39629600      -0.41777700       0.25382700
P        1.85358138       5.31474739       6.76587824       0.00000000 NULL      -0.41777700       0.39629600      -0.25382700
P        3.88980105       0.42863504       6.76587824       0.00000000 NULL       0.41777700      -0.39629600      -0.25382700
12
Lattice="5.80832366113411 0.0 0.0 0.0 5.80832366113411 0.0 0.0 0.0 8.891431500746263" Properties=species:S:1:pos:R:3:initial_magmoms:R:1:castep_labels:S:1:forces:R:3 n_minim_iter=3 energy=-58.603487310685 stress="-0.008621983734432329 0.0 -0.0 0.0 -0.008621983734432329 0.0 -0.0 0.0 -0.005554712295828102" free_energy=-58.603487310685 pbc="T T T"
P        1.05859902       2.88820224       5.79357564       0.00000000 NULL       1.32022000       0.33494000      -0.41986000
P        4.74972464       2.92012142       5.79357564       0.00000000 NULL      -1.32022000      -0.33494000      -0.41985900
P        2.92012142       1.05859902       3.09785586       0.00000000 NULL      -0.33494000       1.32022000       0.41985900
P        2.88820224       4.74972464       3.09785586       0.00000000 NULL       0.33494000      -1.32022000       0.41986000
P        4.23644960       5.90568942       1.60927255       0.00000000 NULL       0.19342100       0.45301900      -0.55248200
P        1.57187407      -0.09736576       1.60927255       0.00000000 NULL      -0.19342100      -0.45301900      -0.55248200
P       -0.09736576       4.23644960       7.28215895       0.00000000 NULL      -0.45301900       0.19342100       0.55248200
P        5.90568942       1.57187407       7.28215895       0.00000000 NULL       0.45301900      -0.19342100       0.55248200
P        5.42132836       4.01683798       2.31342150       0.00000000 NULL       0.29705600       0.59101900      -0.06855500
P        0.38699530       1.79148568       2.31342150       0.00000000 NULL      -0.29705600      -0.59101900      -0.06855500
P        1.79148568       5.42132836       6.57801000       0.00000000 NULL      -0.59101900       0.29705600       0.06855500
P        4.01683798       0.38699530       6.57801000       0.00000000 NULL       0.59101900      -0.29705600       0.06855500
12
Lattice="5.60339188533145 0.0 0.0 0.0 5.60339188533145 0.0 0.0 0.0 9.143173235876363" Properties=species:S:1:pos:R:3:initial_magmoms:R:1:castep_labels:S:1:forces:R:3 n_minim_iter=4 energy=-59.437942678533 stress="-0.008478272101324142 -0.0 -0.0 -0.0 -0.008478272101324142 0.0 -0.0 0.0 0.0017762111027421576" free_energy=-59.437942678533 pbc="T T T"
P        1.06097511       2.81868696       5.92396727       0.00000000 NULL       1.20425400       0.41452800      -0.27953500
P        4.54241678       2.78470492       5.92396727       0.00000000 NULL      -1.20425400      -0.41452800      -0.27953500
P        2.78470492       1.06097511       3.21920596       0.00000000 NULL      -0.41452800       1.20425400       0.27953500
P        2.81868696       4.54241678       3.21920596       0.00000000 NULL       0.41452800      -1.20425400       0.27953500
P        4.05513003       5.86321765       1.55964941       0.00000000 NULL       0.50130900       0.38352500      -0.30650900
P        1.54826186      -0.25982577       1.55964941       0.00000000 NULL      -0.50130900      -0.38352500      -0.30650900
P       -0.25982577       4.05513003       7.58352382       0.00000000 NULL      -0.38352500       0.50130900       0.30650900
P        5.86321765       1.54826186       7.58352382       0.00000000 NULL       0.38352500      -0.50130900       0.30650900
P        5.29385952       4.02390715       2.41408681       0.00000000 NULL      -0.09887700       0.27517600      -0.27030800
P        0.30953236       1.57948473       2.41408681       0.00000000 NULL       0.09887700      -0.27517600      -0.27030800
P        1.57948473       5.29385952       6.72908642       0.00000000 NULL      -0.27517600      -0.09887700       0.27030800
P        4.02390715       0.30953236       6.72908642       0.00000000 NULL       0.27517600       0.09887700       0.27030800
12
Lattice="5.619828920683907 0.0 0.0 0.0 5.619828920683907 0.0 0.0 0.0 8.22512639317551" Properties=species:S:1:pos:R:3:initial_magmoms:R:1:castep_labels:S:1:forces:R:3 n_minim_iter=5 energy=-59.809976255544 stress="-0.005235018394861848 -0.0 0.0 -0.0 -0.005235018394861848 0.0 0.0 0.0 -0.008523660107154316" free_energy=-59.809976255544 pbc="T T T"
P        1.09553667       2.85557035       5.31304257       0.00000000 NULL       0.60243900       0.63854300      -0.82270100
P        4.52429225       2.76425857       5.31304257       0.00000000 NULL      -0.60243900      -0.63854300      -0.82270100
P        2.76425857       1.09553667       2.91208383       0.00000000 NULL      -0.63854300       0.60243900       0.82270100
P        2.85557035       4.52429225       2.91208383       0.00000000 NULL       0.63854300      -0.60243900       0.82270100
P        4.06817348       5.98491238       1.35687638       0.00000000 NULL       1.07224700      -0.09512500      -0.75233800
P        1.55165544      -0.36508346       1.35687638       0.00000000 NULL      -1.07224700       0.09512500      -0.75233800
P       -0.36508346       4.06817348       6.86825002       0.00000000 NULL       0.09512500       1.07224700       0.75233800
P        5.98491238       1.55165544       6.86825002       0.00000000 NULL      -0.09512500      -1.07224700       0.75233800
P        5.32795789       4.11547098       2.17854158       0.00000000 NULL      -0.16554800       0.09079800      -0.10110700
P        0.29187103       1.50435794       2.17854158       0.00000000 NULL       0.16554800      -0.09079800      -0.10110700
P        1.50435794       5.32795789       6.04658481       0.00000000 NULL      -0.09079800      -0.16554800       0.10110700
P        4.11547098       0.29187103       6.04658481       0.00000000 NULL       0.09079800       0.16554800       0.10110700
12
Lattice="5.575356660582645 0.0 0.0 0.0 5.575356660582645 0.0 0.0 0.0 7.8343726767988064" Properties=species:S:1:pos:R:3:initial_magmoms:R:1:castep_labels:S:1:forces:R:3 n_minim_iter=6 energy=-60.11058827918 stress="-0.014949427123256824 -0.0 -0.0 -0.0 -0.014949427123256824 0.0 -0.0 0.0 -0.01029563717003452" free_energy=-60.11058827918 pbc="T T T"
P        1.08995252       2.87546279       5.02508964       0.00000000 NULL       0.55364300       0.28605800      -0.68079100
P        4.48540414       2.69989387       5.02508964       0.00000000 NULL      -0.55364300      -0.28605800      -0.68079100
P        2.69989387       1.08995252       2.80928304       0.00000000 NULL      -0.28605800       0.55364300       0.68079100
P        2.87546279       4.48540414       2.80928304       0.00000000 NULL       0.28605800      -0.55364300       0.68079100
P        4.08030699       6.02124064       1.23451871       0.00000000 NULL       0.41749200      -0.15321200      -0.55686100
P        1.49504967      -0.44588398       1.23451871       0.00000000 NULL      -0.41749200       0.15321200      -0.55686100
P       -0.44588398       4.08030699       6.59985396       0.00000000 NULL       0.15321200       0.41749200       0.55686100
P        6.02124064       1.49504967       6.59985396       0.00000000 NULL      -0.15321200      -0.41749200       0.55686100
P        5.28568952       4.14123304       2.08178539       0.00000000 NULL      -0.45778600      -0.16692200       0.05067700
P        0.28966714       1.43412362       2.08178539       0.00000000 NULL       0.45778600       0.16692200       0.05067700
P        1.43412362       5.28568952       5.75258729       0.00000000 NULL       0.16692200      -0.45778600      -0.05067700
P        4.14123304       0.28966714       5.75258729       0.00000000 NULL      -0.16692200       0.45778600      -0.05067700
12
Lattice="5.599055064853782 0.0 0.0 0.0 5.599055064853782 0.0 0.0 0.0 7.80247656831377" Properties=species:S:1:pos:R:3:initial_magmoms:R:1:castep_labels:S:1:forces:R:3 n_minim_iter=7 energy=-60.28341983278 stress="-0.0026473907677063853 -0.0 -0.0 -0.0 -0.0026473907677063853 -0.0 -0.0 -0.0 -0.005902010133114033" free_energy=-60.28341983278 pbc="T T T"
P        1.09396399       2.93032683       4.98429021       0.00000000 NULL       0.44703000      -0.06789100      -0.58448700
P        4.50509107       2.66872823       4.98429021       0.00000000 NULL      -0.44703000       0.06789100      -0.58448700
P        2.66872823       1.09396399       2.81818636       0.00000000 NULL       0.06789100       0.44703000       0.58448700
P        2.93032683       4.50509107       2.81818636       0.00000000 NULL      -0.06789100      -0.44703000       0.58448700
P        4.08975919       6.08239274       1.20593884       0.00000000 NULL       0.35772300      -0.10385400      -0.29552700
P        1.50929587      -0.48333767       1.20593884       0.00000000 NULL      -0.35772300       0.10385400      -0.29552700
P       -0.48333767       4.08975919       6.59653773       0.00000000 NULL       0.10385400       0.35772300       0.29552700
P        6.08239274       1.50929587       6.59653773       0.00000000 NULL      -0.10385400      -0.35772300       0.29552700
P        5.24046854       4.19096350       2.08843719       0.00000000 NULL      -0.24215200       0.08571300      -0.08526300
P        0.35858653       1.40809156       2.08843719       0.00000000 NULL       0.24215100      -0.08571300      -0.08526300
P        1.40809156       5.24046854       5.71403938       0.00000000 NULL      -0.08571300      -0.24215200       0.08526300
P        4.19096350       0.35858653       5.71403938       0.00000000 NULL       0.08571300       0.24215100       0.08526300
12
Lattice="5.440238224388541 0.0 0.0 0.0 5.440238224388541 0.0 0.0 0.0 7.808772032584163" Properties=species:S:1:pos:R:3:initial_magmoms:R:1:castep_labels:S:1:forces:R:3 n_minim_iter=8 energy=-60.993312522623 stress="-0.010963918229038335 0.0 -0.0 0.0 -0.010963918229038335 0.0 -0.0 0.0 -0.008746055605202788" free_energy=-60.993312522623 pbc="T T T"
P        1.10990223       2.81429473       4.83417799       0.00000000 NULL       0.46266500      -0.85538800      -0.52787400
P        4.33033599       2.62594349       4.83417799       0.00000000 NULL      -0.46266500       0.85538800      -0.52787400
P        2.62594349       1.10990223       2.97459404       0.00000000 NULL       0.85538800       0.46266500       0.52787400
P        2.81429473       4.33033599       2.97459404       0.00000000 NULL      -0.85538800      -0.46266500       0.52787400
P        3.96300126       6.04040838       1.12976038       0.00000000 NULL      -0.14332700       0.42018000       0.01732300
P        1.47723696      -0.60017015       1.12976038       0.00000000 NULL       0.14332700      -0.42018000       0.01732300
P       -0.60017015       3.96300126       6.67901166       0.00000000 NULL      -0.42018000      -0.14332700      -0.01732300
P        6.04040838       1.47723696       6.67901166       0.00000000 NULL       0.42018000       0.14332700      -0.01732300
P        4.82114234       4.19674986       2.10839196       0.00000000 NULL       0.52740100       0.19931900      -0.36982500
P        0.61909588       1.24348837       2.10839196       0.00000000 NULL      -0.52740100      -0.19931900      -0.36982500
P        1.24348837       4.82114234       5.70038008       0.00000000 NULL      -0.19931900       0.52740100       0.36982500
P        4.19674986       0.61909588       5.70038008       0.00000000 NULL       0.19931900      -0.52740100       0.36982500
12
Lattice="5.4140928537313515 0.0 0.0 0.0 5.4140928537313515 0.0 0.0 0.0 8.017151320096309" Properties=species:S:1:pos:R:3:initial_magmoms:R:1:castep_labels:S:1:forces:R:3 n_minim_iter=9 energy=-61.105641416564 stress="-0.007986146119859993 0.0 0.0 0.0 -0.007986146119859993 -0.0 0.0 -0.0 0.0016099440114813986" free_energy=-61.105641416564 pbc="T T T"
P        1.10683494       2.78813554       4.91700487       0.00000000 NULL       0.41309300      -0.95124900      -0.24243300
P        4.30725791       2.62595732       4.91700487       0.00000000 NULL      -0.41309300       0.95124900      -0.24243300
P        2.62595732       1.10683494       3.10014645       0.00000000 NULL       0.95124900       0.41309300       0.24243300
P        2.78813554       4.30725791       3.10014645       0.00000000 NULL      -0.95124900      -0.41309300       0.24243300
P        3.94248720       6.05926106       1.16623221       0.00000000 NULL      -0.26071200       0.43182200       0.29452300
P        1.47160565      -0.64516821       1.16623221       0.00000000 NULL       0.26071200      -0.43182200       0.29452300
P       -0.64516821       3.94248720       6.85091911       0.00000000 NULL      -0.43182200      -0.26071200      -0.29452300
P        6.05926106       1.47160565       6.85091911       0.00000000 NULL       0.43182200       0.26071200      -0.29452300
P        4.73688794       4.21009015       2.14034434       0.00000000 NULL       0.81581600       0.18496200      -0.46780100
P        0.67720492       1.20400270       2.14034434       0.00000000 NULL      -0.81581600      -0.18496200      -0.46780100
P        1.20400270       4.73688794       5.87680698       0.00000000 NULL      -0.18496200       0.81581600       0.46780100
P        4.21009015       0.67720492       5.87680698       0.00000000 NULL       0.18496200      -0.81581600       0.46780100
12
Lattice="5.447066743593491 0.0 0.0 0.0 5.447066743593491 0.0 0.0 0.0 7.890438711869098" Properties=species:S:1:pos:R:3:initial_magmoms:R:1:castep_labels:S:1:forces:R:3 n_minim_iter=10 energy=-61.252507102869 stress="-0.007394060694431335 0.0 -0.0 0.0 -0.007394060694431335 -0.0 -0.0 -0.0 0.0015442931766642817" free_energy=-61.252507102869 pbc="T T T"
P        1.10583825       2.78689835       4.77295179       0.00000000 NULL       0.38466200      -0.54347400       0.03637900
P        4.34122849       2.66016839       4.77295179       0.00000000 NULL      -0.38466200       0.54347400       0.03637900
P        2.66016839       1.10583825       3.11748692       0.00000000 NULL       0.54347400       0.38466200      -0.03637900
P        2.78689835       4.34122849       3.11748692       0.00000000 NULL      -0.54347400      -0.38466200      -0.03637900
P        3.96497055       6.10022402       1.17036034       0.00000000 NULL      -0.28138800       0.70057700       0.20945400
P        1.48209619      -0.65315728       1.17036034       0.00000000 NULL       0.28138800      -0.70057700       0.20945400
P       -0.65315728       3.96497055       6.72007838       0.00000000 NULL      -0.70057700      -0.28138800      -0.20945400
P        6.10022402       1.48209619       6.72007838       0.00000000 NULL       0.70057700       0.28138800      -0.20945400
P        4.75510270       4.25993972       2.07255870       0.00000000 NULL       0.56736800      -0.07294000      -0.12451000
P        0.69196405       1.18712703       2.07255870       0.00000000 NULL      -0.56736800       0.07294000      -0.12451000
P        1.18712703       4.75510270       5.81788001       0.00000000 NULL       0.07294000       0.56736800       0.12451000
P        4.25993972       0.69196405       5.81788001       0.00000000 NULL      -0.07294000      -0.56736800       0.12451000
12
Lattice="5.412255210847648 0.0 0.0 0.0 5.412255210847648 0.0 0.0 0.0 7.898889376520689" Properties=species:S:1:pos:R:3:initial_magmoms:R:1:castep_labels:S:1:forces:R:3 n_minim_iter=11 energy=-61.390700479812 stress="0.005107048980274564 -0.0 0.0 -0.0 0.005107048980274564 0.0 0.0 0.0 0.009462774064732287" free_energy=-61.390700479812 pbc="T T T"
P        1.11256446       2.75695124       4.71760601       0.00000000 NULL       0.18573100      -0.37761100       0.37521700
P        4.29969075       2.65530398       4.71760601       0.00000000 NULL      -0.18573100       0.37761100       0.37521700
P        2.65530398       1.11256446       3.18128337       0.00000000 NULL       0.37761100       0.18573100      -0.37521700
P        2.75695124       4.29969075       3.18128337       0.00000000 NULL      -0.37761100      -0.18573100      -0.37521700
P        3.94376222       6.12447102       1.20755403       0.00000000 NULL      -0.01337400       0.21733400       0.49207100
P        1.46849300      -0.71221581       1.20755403       0.00000000 NULL       0.01337400      -0.21733400       0.49207100
P       -0.71221581       3.94376222       6.69133535       0.00000000 NULL      -0.21733400      -0.01337400      -0.49207100
P        6.12447102       1.46849300       6.69133535       0.00000000 NULL       0.21733400       0.01337400      -0.49207100
P        4.72995193       4.19862124       2.06599241       0.00000000 NULL       0.25128400       0.42435500      -0.25342200
P        0.68230328       1.21363397       2.06599241       0.00000000 NULL      -0.25128400      -0.42435500      -0.25342200
P        1.21363397       4.72995193       5.83289696       0.00000000 NULL      -0.42435500       0.25128400       0.25342200
P        4.19862124       0.68230328       5.83289696       0.00000000 NULL       0.42435500      -0.25128400       0.25342200
12
Lattice="5.495881056767065 0.0 0.0 0.0 5.495881056767065 0.0 0.0 0.0 7.945112322106769" Properties=species:S:1:pos:R:3:initial_magmoms:R:1:castep_labels:S:1:forces:R:3 n_minim_iter=12 energy=-61.66185832171 stress="0.00900109138580594 0.0 -0.0 0.0 0.00900109138580594 0.0 -0.0 0.0 0.010344621201651442" free_energy=-61.66185832171 pbc="T T T"
P        1.13898615       2.74911942       4.72506137       0.00000000 NULL      -0.14380700      -0.43253200       0.36145400
P        4.35689491       2.74676164       4.72506137       0.00000000 NULL       0.14380700       0.43253200       0.36145400
P        2.74676164       1.13898615       3.22005095       0.00000000 NULL       0.43253200      -0.14380700      -0.36145400
P        2.74911942       4.35689491       3.22005095       0.00000000 NULL      -0.43253200       0.14380700      -0.36145400
P        4.10333419       6.32789172       1.32327329       0.00000000 NULL      -0.30333000       0.12401500       0.22133400
P        1.39254687      -0.83201066       1.32327329       0.00000000 NULL       0.30333000      -0.12401500       0.22133400
P       -0.83201066       4.10333419       6.62183903       0.00000000 NULL      -0.12401500      -0.30333000      -0.22133400
P        6.32789172       1.39254687       6.62183903       0.00000000 NULL       0.12401500       0.30333000      -0.22133400
P        4.78688729       4.32532896       2.10034913       0.00000000 NULL      -0.16192500       0.40506800      -0.03723200
P        0.70899377       1.17055210       2.10034913       0.00000000 NULL       0.16192500      -0.40506800      -0.03723200
P        1.17055210       4.78688729       5.84476319       0.00000000 NULL      -0.40506800      -0.16192500       0.03723200
P        4.32532896       0.70899377       5.84476319       0.00000000 NULL       0.40506800       0.16192500       0.03723200
12
Lattice="5.548174672692327 0.0 0.0 0.0 5.548174672692327 0.0 0.0 0.0 7.575637497803635" Properties=species:S:1:pos:R:3:initial_magmoms:R:1:castep_labels:S:1:forces:R:3 n_minim_iter=13 energy=-61.879109013329 stress="0.002421620138928804 -0.0 -0.0 -0.0 0.002421620138928804 0.0 -0.0 0.0 -0.00032294843842455104" free_energy=-61.879109013329 pbc="T T T"
P        1.17029088       2.69685766       4.45190731       0.00000000 NULL      -0.36488800      -0.40568200       0.20946700
P        4.37788379       2.85131701       4.45190731       0.00000000 NULL       0.36488800       0.40568200       0.20946700
P        2.85131701       1.17029088       3.12373019       0.00000000 NULL       0.40568200      -0.36488800      -0.20946700
P        2.69685766       4.37788379       3.12373019       0.00000000 NULL      -0.40568200       0.36488800      -0.20946700
P        4.21006629       6.51877715       1.29575754       0.00000000 NULL      -0.37106900      -0.06595200       0.05978700
P        1.33810839      -0.97060248       1.29575754       0.00000000 NULL       0.37106900       0.06595200       0.05978700
P       -0.97060248       4.21006629       6.27987996       0.00000000 NULL       0.06595200      -0.37106900      -0.05978700
P        6.51877715       1.33810839       6.27987996       0.00000000 NULL      -0.06595200       0.37106900      -0.05978700
P        4.76599235       4.46638181       2.03531193       0.00000000 NULL      -0.19252000       0.32946300       0.01673800
P        0.78218232       1.08179287       2.03531193       0.00000000 NULL       0.19252000      -0.32946300       0.01673800
P        1.08179287       4.76599235       5.54032556       0.00000000 NULL      -0.32946300      -0.19252000      -0.01673800
P        4.46638181       0.78218232       5.54032556       0.00000000 NULL       0.32946300       0.19252000      -0.01673800
12
Lattice="5.593509029715541 0.0 0.0 0.0 5.593509029715541 0.0 0.0 0.0 7.611856382411134" Properties=species:S:1:pos:R:3:initial_magmoms:R:1:castep_labels:S:1:forces:R:3 n_minim_iter=14 energy=-61.98515209019 stress="0.004252025223631853 0.0 -0.0 0.0 0.004252025223631853 -0.0 -0.0 -0.0 0.00011248988361223865" free_energy=-61.98515209019 pbc="T T T"
P        1.17619153       2.66995653       4.48827083       0.00000000 NULL      -0.32663700      -0.23731900       0.07201400
P        4.41731750       2.92355250       4.48827083       0.00000000 NULL       0.32663700       0.23731900       0.07201400
P        2.92355250       1.17619153       3.12358555       0.00000000 NULL       0.23731900      -0.32663700      -0.07201400
P        2.66995653       4.41731750       3.12358555       0.00000000 NULL      -0.23731900       0.32663700      -0.07201400
P        4.26968710       6.62217267       1.30670110       0.00000000 NULL      -0.28801400      -0.00002600       0.01455300
P        1.32382193      -1.02866364       1.30670110       0.00000000 NULL       0.28801400       0.00002600       0.01455300
P       -1.02866364       4.26968710       6.30515529       0.00000000 NULL       0.00002600      -0.28801400      -0.01455300
P        6.62217267       1.32382193       6.30515529       0.00000000 NULL      -0.00002600       0.28801400      -0.01455300
P        4.76861575       4.57046631       2.04729313       0.00000000 NULL      -0.02519000       0.13872800       0.02407500
P        0.82489328       1.02304272       2.04729313       0.00000000 NULL       0.02519000      -0.13872800       0.02407500
P        1.02304272       4.76861575       5.56456326       0.00000000 NULL      -0.13872800      -0.02519000      -0.02407500
P        4.57046631       0.82489328       5.56456326       0.00000000 NULL       0.13872800       0.02519000      -0.02407500
12
Lattice="5.580182947145301 0.0 0.0 0.0 5.580182947145301 0.0 0.0 0.0 7.647842947779847" Properties=species:S:1:pos:R:3:initial_magmoms:R:1:castep_labels:S:1:forces:R:3 n_minim_iter=15 energy=-62.036819710673 stress="0.003873656546670578 0.0 0.0 0.0 0.003873656546670578 0.0 0.0 0.0 -0.0005980047576222325" free_energy=-62.036819710673 pbc="T T T"
P        1.16503370       2.64924848       4.51796983       0.00000000 NULL      -0.22594300      -0.14728900       0.08029200
P        4.41514925       2.93093447       4.51796983       0.00000000 NULL       0.22594300       0.14728900       0.08029200
P        2.93093447       1.16503370       3.12987312       0.00000000 NULL       0.14728900      -0.22594300      -0.08029200
P        2.64924848       4.41514925       3.12987312       0.00000000 NULL      -0.14728900       0.22594300      -0.08029200
P        4.23705163       6.61995408       1.28859417       0.00000000 NULL      -0.13493000       0.07435600       0.05759400
P        1.34313132      -1.03977113       1.28859417       0.00000000 NULL       0.13493000      -0.07435600       0.05759400
P       -1.03977113       4.23705163       6.35924878       0.00000000 NULL      -0.07435600      -0.13493000      -0.05759400
P        6.61995408       1.34313132       6.35924878       0.00000000 NULL       0.07435600       0.13493000      -0.05759400
P        4.74969676       4.58781292       2.04288357       0.00000000 NULL       0.15590700       0.02966700       0.01413400
P        0.83048619       0.99237003       2.04288357       0.00000000 NULL      -0.15590700      -0.02966700       0.01413400
P        0.99237003       4.74969676       5.60495938       0.00000000 NULL      -0.02966700       0.15590700      -0.01413400
P        4.58781292       0.83048619       5.60495938       0.00000000 NULL       0.02966700      -0.15590700      -0.01413400
12
Lattice="5.4967162848712405 0.0 0.0 0.0 5.4967162848712405 0.0 0.0 0.0 8.053686001561296" Properties=species:S:1:pos:R:3:initial_magmoms:R:1:castep_labels:S:1:forces:R:3 n_minim_iter=16 energy=-62.119199816469 stress="0.002813180120747312 0.0 -0.0 0.0 0.002813180120747312 0.0 -0.0 0.0 0.0014386859740427426" free_energy=-62.119199816469 pbc="T T T"
P        1.13004985       2.56123890       4.85152323       0.00000000 NULL       0.04801800       0.02768400       0.02316500
P        4.36666644       2.93547738       4.85152323       0.00000000 NULL      -0.04801800      -0.02768400       0.02316500
P        2.93547738       1.13004985       3.20216277       0.00000000 NULL      -0.02768400       0.04801800      -0.02316500
P        2.56123890       4.36666644       3.20216277       0.00000000 NULL       0.02768400      -0.04801800      -0.02316500
P        4.13575139       6.53143555       1.29262468       0.00000000 NULL      -0.07561900       0.16964100       0.08790900
P        1.36096490      -1.03471926       1.29262468       0.00000000 NULL       0.07561900      -0.16964100       0.08790900
P       -1.03471926       4.13575139       6.76106133       0.00000000 NULL      -0.16964100      -0.07561900      -0.08790900
P        6.53143555       1.36096490       6.76106133       0.00000000 NULL       0.16964100       0.07561900      -0.08790900
P        4.70598482       4.53736519       2.11791123       0.00000000 NULL       0.28242500      -0.02379800      -0.00763200
P        0.79073146       0.95935109       2.11791123       0.00000000 NULL      -0.28242500       0.02379800      -0.00763200
P        0.95935109       4.70598482       5.93577477       0.00000000 NULL       0.02379800       0.28242500       0.00763200
P        4.53736519       0.79073146       5.93577477       0.00000000 NULL      -0.02379800      -0.28242500       0.00763200
12
Lattice="5.419228338929991 0.0 0.0 0.0 5.419228338929991 0.0 0.0 0.0 8.310411549610842" Properties=species:S:1:pos:R:3:initial_magmoms:R:1:castep_labels:S:1:forces:R:3 n_minim_iter=17 energy=-62.161647857865 stress="-0.0017957026886638522 0.0 0.0 0.0 -0.0017957026886638522 -0.0 0.0 -0.0 0.0036612241465852962" free_energy=-62.161647857865 pbc="T T T"
P        1.10406338       2.52194148       5.04821961       0.00000000 NULL       0.30415400       0.02036800       0.06230100
P        4.31516496       2.89728686       5.04821961       0.00000000 NULL      -0.30415400      -0.02036800       0.06230100
P        2.89728686       1.10406338       3.26219194       0.00000000 NULL      -0.02036800       0.30415400      -0.06230100
P        2.52194148       4.31516496       3.26219194       0.00000000 NULL       0.02036800      -0.30415400      -0.06230100
P        4.02007380       6.46601575       1.29572422       0.00000000 NULL       0.08328700       0.10923400       0.14879300
P        1.39915454      -1.04678741       1.29572422       0.00000000 NULL      -0.08328700      -0.10923400       0.14879300
P       -1.04678741       4.02007380       7.01468733       0.00000000 NULL      -0.10923400       0.08328700      -0.14879300
P        6.46601575       1.39915454       7.01468733       0.00000000 NULL       0.10923400      -0.08328700      -0.14879300
P        4.68837382       4.50449680       2.16924716       0.00000000 NULL       0.30343600      -0.11343600      -0.06094100
P        0.73085452       0.91473154       2.16924716       0.00000000 NULL      -0.30343600       0.11343600      -0.06094100
P        0.91473154       4.68837382       6.14116439       0.00000000 NULL       0.11343600       0.30343600       0.06094100
P        4.50449680       0.73085452       6.14116439       0.00000000 NULL      -0.11343600      -0.30343600       0.06094100
12
Lattice="5.423712905662406 0.0 0.0 0.0 5.423712905662406 0.0 0.0 0.0 8.216155909047668" Properties=species:S:1:pos:R:3:initial_magmoms:R:1:castep_labels:S:1:forces:R:3 n_minim_iter=18 energy=-62.20237503837 stress="-0.0018099490238220348 -0.0 -0.0 -0.0 -0.0018099490238220348 0.0 -0.0 0.0 -0.0011643336490884874" free_energy=-62.20237503837 pbc="T T T"
P        1.11546128       2.52668358       4.98426772       0.00000000 NULL       0.15552800       0.12143300      -0.10171300
P        4.30825163       2.89702932       4.98426772       0.00000000 NULL      -0.15552800      -0.12143300      -0.10171300
P        2.89702932       1.11546128       3.23188819       0.00000000 NULL      -0.12143300       0.15552800       0.10171300
P        2.52668358       4.30825163       3.23188819       0.00000000 NULL       0.12143300      -0.15552800       0.10171300
P        4.02542813       6.46938777       1.30057145       0.00000000 NULL       0.06175200       0.08737800      -0.07264800
P        1.39828477      -1.04567487       1.30057145       0.00000000 NULL      -0.06175200      -0.08737800      -0.07264800
P       -1.04567487       4.02542813       6.91558445       0.00000000 NULL      -0.08737800       0.06175200       0.07264800
P        6.46938777       1.39828477       6.91558445       0.00000000 NULL       0.08737800      -0.06175200       0.07264800
P        4.71849678       4.50126722       2.16914533       0.00000000 NULL       0.14156100      -0.06596800      -0.00765300
P        0.70521612       0.92244569       2.16914533       0.00000000 NULL      -0.14156100       0.06596800      -0.00765300
P        0.92244569       4.71849678       6.04701058       0.00000000 NULL       0.06596800       0.14156100       0.00765300
P        4.50126722       0.70521612       6.04701058       0.00000000 NULL      -0.06596800      -0.14156100       0.00765300
12
Lattice="5.432631837072 0.0 0.0 0.0 5.432631837072 0.0 0.0 0.0 8.113323491044964" Properties=species:S:1:pos:R:3:initial_magmoms:R:1:castep_labels:S:1:forces:R:3 n_minim_iter=19 energy=-62.223620039277 stress="-0.0003333020385265517 0.0 -0.0 0.0 -0.0003333020385265517 0.0 -0.0 0.0 -0.0010736159386593898" free_energy=-62.223620039277 pbc="T T T"
P        1.12221892       2.55699340       4.89711661       0.00000000 NULL       0.06406400       0.07475100      -0.04746700
P        4.31041292       2.87563843       4.89711661       0.00000000 NULL      -0.06406400      -0.07475100      -0.04746700
P        2.87563843       1.12221892       3.21620688       0.00000000 NULL      -0.07475100       0.06406400       0.04746700
P        2.55699340       4.31041292       3.21620688       0.00000000 NULL       0.07475100      -0.06406400       0.04746700
P        4.02734807       6.48013161       1.29536705       0.00000000 NULL       0.01453400       0.04323200      -0.06475300
P        1.40528377      -1.04749977       1.29536705       0.00000000 NULL      -0.01453400      -0.04323200      -0.06475300
P       -1.04749977       4.02734807       6.81795644       0.00000000 NULL      -0.04323200       0.01453400       0.06475300
P        6.48013161       1.40528377       6.81795644       0.00000000 NULL       0.04323200      -0.01453400       0.06475300
P        4.74366360       4.50469268       2.14970436       0.00000000 NULL       0.04252000      -0.00278000       0.03258000
P        0.68896823       0.92793915       2.14970436       0.00000000 NULL      -0.04252000       0.00278000       0.03258000
P        0.92793915       4.74366360       5.96361913       0.00000000 NULL       0.00278000       0.04252000      -0.03258000
P        4.50469268       0.68896823       5.96361913       0.00000000 NULL      -0.00278000      -0.04252000      -0.03258000
12
Lattice="5.42922224606391 0.0 0.0 0.0 5.42922224606391 0.0 0.0 0.0 8.07834219253035" Properties=species:S:1:pos:R:3:initial_magmoms:R:1:castep_labels:S:1:forces:R:3 n_minim_iter=20 energy=-62.22897735001 stress="-0.0004537611767747364 0.0 -0.0 0.0 -0.0004537611767747364 0.0 -0.0 0.0 -0.0006327459185992554" free_energy=-62.22897735001 pbc="T T T"
P        1.12558577       2.57007463       4.86891718       0.00000000 NULL       0.01599200       0.05013100      -0.01817000
P        4.30363647       2.85914761       4.86891718       0.00000000 NULL      -0.01599200      -0.05013100      -0.01817000
P        2.85914761       1.12558577       3.20942501       0.00000000 NULL      -0.05013100       0.01599200       0.01817000
P        2.57007463       4.30363647       3.20942501       0.00000000 NULL       0.05013100      -0.01599200       0.01817000
P        4.01636573       6.47716891       1.28966664       0.00000000 NULL       0.01082500       0.02223000      -0.04825800
P        1.41285652      -1.04794666       1.28966664       0.00000000 NULL      -0.01082500      -0.02223000      -0.04825800
P       -1.04794666       4.01636573       6.78867556       0.00000000 NULL      -0.02223000       0.01082500       0.04825800
P        6.47716891       1.41285652       6.78867556       0.00000000 NULL       0.02223000      -0.01082500       0.04825800
P        4.75739287       4.50711346       2.15230861       0.00000000 NULL      -0.03216600      -0.04928000       0.02532900
P        0.67182938       0.92210878       2.15230861       0.00000000 NULL       0.03216600       0.04928000       0.02532900
P        0.92210878       4.75739287       5.92603359       0.00000000 NULL       0.04928000      -0.03216600      -0.02532900
P        4.50711346       0.67182938       5.92603359       0.00000000 NULL      -0.04928000       0.03216600      -0.02532900
12
Lattice="5.427157756283022 0.0 0.0 0.0 5.427157756283022 0.0 0.0 0.0 8.054632687554967" Properties=species:S:1:pos:R:3:initial_magmoms:R:1:castep_labels:S:1:forces:R:3 n_minim_iter=21 energy=-62.230576206245 stress="0.000519765692321927 -0.0 0.0 -0.0 0.000519765692321927 -0.0 0.0 -0.0 -0.00020826877672229676" free_energy=-62.230576206245 pbc="T T T"
P        1.12820263       2.57838383       4.85074247       0.00000000 NULL      -0.01222400       0.02306700       0.01873100
P        4.29895512       2.84877392       4.85074247       0.00000000 NULL       0.01222400      -0.02306700       0.01873100
P        2.84877392       1.12820263       3.20389022       0.00000000 NULL      -0.02306700      -0.01222400      -0.01873100
P        2.57838383       4.29895512       3.20389022       0.00000000 NULL       0.02306700       0.01222400      -0.01873100
P        4.01358773       6.46945103       1.28415026       0.00000000 NULL       0.00261300       0.00789900      -0.00910600
P        1.41357002      -1.04229328       1.28415026       0.00000000 NULL      -0.00261300      -0.00789900      -0.00910600
P       -1.04229328       4.01358773       6.77048242       0.00000000 NULL      -0.00789900       0.00261300       0.00910600
P        6.46945103       1.41357002       6.77048242       0.00000000 NULL       0.00789900      -0.00261300       0.00910600
P        4.75684516       4.49818335       2.14909427       0.00000000 NULL      -0.01772100       0.01208000       0.01511100
P        0.67031259       0.92897440       2.14909427       0.00000000 NULL       0.01772100      -0.01208000       0.01511100
P        0.92897440       4.75684516       5.90553842       0.00000000 NULL      -0.01208000      -0.01772100      -0.01511100
P        4.49818335       0.67031259       5.90553842       0.00000000 NULL       0.01208000       0.01772100      -0.01511100
