13
Lattice="5.05144 1.138002294153578e-15 -1.1785657813167017e-15 1.4067296251859371 5.077213669102786 -2.573056383164673e-15 0.48547372215565393 2.125548434425336 10.652536518355998" Properties=species:S:1:pos:R:3:initial_magmoms:R:1:castep_labels:S:1 n_minim_iter=1 pbc="T T T"
P        3.91681890       1.73759100       1.54317012       0.00000000 NULL
P        1.21670828       1.62130265       6.95706934       0.00000000 NULL
P        1.90794570       3.07637534       8.25868573       0.00000000 NULL
P        5.37380174       4.05685784       9.24461420       0.00000000 NULL
P        4.55215857       1.34634258       4.28347122       0.00000000 NULL
P        3.52300797       4.79042566       8.12561318       0.00000000 NULL
P        5.16149949       5.91436278       8.40808862       0.00000000 NULL
P        1.60550637       0.74277066       0.27315873       0.00000000 NULL
P        4.82830097       3.09152670       5.50631637       0.00000000 NULL
P        3.39250715       3.20348403       6.90904770       0.00000000 NULL
P        2.64339642       3.53021391       0.75262514       0.00000000 NULL
P        3.54900870       3.26444777       9.58477100       0.00000000 NULL
P        5.55649867       2.66121916       2.33339019       0.00000000 NULL
13
Lattice="5.065750206330413 0.003366841867520411 -0.0011215554061098233 1.4140987648251313 5.085511524434291 0.0025564200285925513 0.48590057166224637 2.134972286963642 10.672167463579537" Properties=species:S:1:pos:R:3:initial_magmoms:R:1:castep_labels:S:1 n_minim_iter=2 pbc="T T T"
P        3.92862971       1.74359740       1.54594327       0.00000000 NULL
P        1.21958267       1.62831223       6.96969573       0.00000000 NULL
P        1.91326116       3.08664546       8.27441341       0.00000000 NULL
P        5.39000608       4.07152076       9.26207564       0.00000000 NULL
P        4.56502215       1.35381348       4.29051999       0.00000000 NULL
P        3.53414893       4.80468853       8.14168270       0.00000000 NULL
P        5.17846617       5.93143207       8.42483511       0.00000000 NULL
P        1.61026928       0.74499096       0.27392963       0.00000000 NULL
P        4.84306963       3.10233560       5.51643733       0.00000000 NULL
P        3.40272844       3.21404674       6.92175292       0.00000000 NULL
P        2.65303511       3.53749751       0.75536105       0.00000000 NULL
P        3.55912696       3.27679683       9.60266433       0.00000000 NULL
P        5.57359493       2.67009387       2.33789059       0.00000000 NULL
13
Lattice="5.356711823170445 0.07241115008982509 -0.024046313595362346 1.564522610635616 5.249932387202359 0.054973240132167096 0.4945722408484883 2.325762903882196 11.062831475247105" Properties=species:S:1:pos:R:3:initial_magmoms:R:1:castep_labels:S:1 n_minim_iter=3 pbc="T T T"
P        4.16893654       1.86488379       1.60117753       0.00000000 NULL
P        1.27792774       1.77019890       7.22086533       0.00000000 NULL
P        2.02114263       3.29353389       8.58764586       0.00000000 NULL
P        5.72001575       4.36770015       9.61000420       0.00000000 NULL
P        4.82674490       1.50562682       4.43025121       0.00000000 NULL
P        3.76101393       5.09177060       8.46225543       0.00000000 NULL
P        5.52421317       6.27478665       8.75888342       0.00000000 NULL
P        1.70701583       0.78968345       0.28950393       0.00000000 NULL
P        5.14383609       3.32040615       5.71786529       0.00000000 NULL
P        3.61072886       3.42688751       7.17440758       0.00000000 NULL
P        2.84937713       3.68282895       0.81064431       0.00000000 NULL
P        3.76490355       3.52626322       9.95899974       0.00000000 NULL
P        5.92135128       2.84899569       2.42767986       0.00000000 NULL
13
Lattice="5.461810677665578 0.09482866231145148 -0.03731706235433402 1.6163225274257431 5.234168566706559 0.08248175664890305 0.48612021614099116 2.384174060881552 11.102375665618897" Properties=species:S:1:pos:R:3:initial_magmoms:R:1:castep_labels:S:1 n_minim_iter=4 pbc="T T T"
P        4.25417360       1.88663842       1.60593438       0.00000000 NULL
P        1.29025341       1.81172119       7.24478248       0.00000000 NULL
P        2.04683852       3.33567835       8.62249023       0.00000000 NULL
P        5.83077866       4.43017844       9.64985342       0.00000000 NULL
P        4.91807366       1.55060994       4.43451030       0.00000000 NULL
P        3.83277395       5.14290913       8.50293904       0.00000000 NULL
P        5.63858989       6.32688114       8.80184305       0.00000000 NULL
P        1.74082243       0.79435960       0.29342637       0.00000000 NULL
P        5.24775025       3.36019678       5.73715478       0.00000000 NULL
P        3.67775585       3.46778890       7.19731589       0.00000000 NULL
P        2.91807725       3.68334389       0.82762445       0.00000000 NULL
P        3.82738536       3.58336294       9.99810249       0.00000000 NULL
P        6.04014383       2.87389518       2.43812467       0.00000000 NULL
13
Lattice="5.572063518498251 0.11061871296989194 -0.054448806981293014 1.6628964545631686 5.17009653715765 0.10885248678441706 0.46723269876218276 2.4223656802084954 11.063533137140555" Properties=species:S:1:pos:R:3:initial_magmoms:R:1:castep_labels:S:1 n_minim_iter=5 pbc="T T T"
P        4.34101695       1.88928697       1.59696754       0.00000000 NULL
P        1.29493816       1.83738243       7.21663924       0.00000000 NULL
P        2.06049341       3.34536922       8.59488363       0.00000000 NULL
P        5.93750639       4.44668575       9.62050714       0.00000000 NULL
P        5.01079865       1.58008982       4.40195739       0.00000000 NULL
P        3.89612377       5.14872336       8.48049530       0.00000000 NULL
P        5.74459154       6.31945907       8.77803114       0.00000000 NULL
P        1.77430852       0.78970605       0.29506406       0.00000000 NULL
P        5.35058235       3.36405243       5.71210955       0.00000000 NULL
P        3.73915462       3.47401335       7.16446946       0.00000000 NULL
P        2.98462273       3.64806970       0.83692058       0.00000000 NULL
P        3.88162094       3.60370018       9.96638309       0.00000000 NULL
P        6.15566777       2.86493780       2.42856771       0.00000000 NULL
13
Lattice="5.754108960972314 0.12048063896194833 -0.07889736388776222 1.7235048795882904 5.045664940326234 0.1297660377403835 0.4373206607383578 2.4282348299271574 10.903424449247368" Properties=species:S:1:pos:R:3:initial_magmoms:R:1:castep_labels:S:1 n_minim_iter=6 pbc="T T T"
P        4.48234263       1.87126914       1.56548984       0.00000000 NULL
P        1.29963041       1.83926947       7.10681450       0.00000000 NULL
P        2.07376834       3.30789521       8.46928355       0.00000000 NULL
P        6.11258172       4.39685787       9.48590813       0.00000000 NULL
P        5.16587113       1.59267266       4.30727677       0.00000000 NULL
P        3.99336616       5.10022742       8.35615635       0.00000000 NULL
P        5.90681221       6.23845989       8.64449470       0.00000000 NULL
P        1.82638724       0.77293623       0.29439778       0.00000000 NULL
P        5.51791730       3.32065658       5.61551209       0.00000000 NULL
P        3.83623657       3.43115930       7.03870404       0.00000000 NULL
P        3.08441455       3.56858042       0.83102491       0.00000000 NULL
P        3.96830168       3.56884968       9.82717602       0.00000000 NULL
P        6.33264995       2.81112590       2.38773604       0.00000000 NULL
13
Lattice="5.946034424898376 0.12005218733456784 -0.08135542607649203 1.7765218203959168 5.002182651503055 0.12233512325093245 0.450401975657074 2.3958853265887714 10.722606371650704" Properties=species:S:1:pos:R:3:initial_magmoms:R:1:castep_labels:S:1 n_minim_iter=7 pbc="T T T"
P        4.63762052       1.86568890       1.53874888       0.00000000 NULL
P        1.32705214       1.81687971       6.98421300       0.00000000 NULL
P        2.11307600       3.26479338       8.32667415       0.00000000 NULL
P        6.33777675       4.33047120       9.34460644       0.00000000 NULL
P        5.34938685       1.58881067       4.21394183       0.00000000 NULL
P        4.12767480       5.07513877       8.20628736       0.00000000 NULL
P        6.10106224       6.19383840       8.48355835       0.00000000 NULL
P        1.88029323       0.76233894       0.29654959       0.00000000 NULL
P        5.71617659       3.28457464       5.51648230       0.00000000 NULL
P        3.96507820       3.38526946       6.89604346       0.00000000 NULL
P        3.18694998       3.53781550       0.81084509       0.00000000 NULL
P        4.09883100       3.51026131       9.67884514       0.00000000 NULL
P        6.51522588       2.77076061       2.35386872       0.00000000 NULL
13
Lattice="6.01703758449959 0.115278956913053 -0.08029146193947653 1.7914972605379211 4.87764879046239 0.14316222409868148 0.4574610226913033 2.3869234644527184 10.430594862784607" Properties=species:S:1:pos:R:3:initial_magmoms:R:1:castep_labels:S:1 n_minim_iter=8 pbc="T T T"
P        4.69876588       1.83672757       1.50608204       0.00000000 NULL
P        1.32629282       1.80332014       6.79079849       0.00000000 NULL
P        2.11257451       3.22127634       8.10906767       0.00000000 NULL
P        6.43509253       4.25114595       9.11629254       0.00000000 NULL
P        5.42527046       1.57779571       4.08164563       0.00000000 NULL
P        4.18263608       5.00938961       7.99355770       0.00000000 NULL
P        6.16716512       6.08946546       8.26487074       0.00000000 NULL
P        1.89696492       0.74013596       0.29759918       0.00000000 NULL
P        5.79799287       3.22880317       5.37623181       0.00000000 NULL
P        4.01750178       3.32508939       6.69712744       0.00000000 NULL
P        3.22625086       3.45367374       0.80235847       0.00000000 NULL
P        4.14994581       3.45149680       9.43617261       0.00000000 NULL
P        6.56189263       2.69829388       2.30910234       0.00000000 NULL
13
Lattice="6.121528753771174 0.12635163850650552 -0.07370360490529476 1.8317252338929586 4.945716934869265 0.152820669229715 0.486054973235872 2.431608356336445 10.50585421929065" Properties=species:S:1:pos:R:3:initial_magmoms:R:1:castep_labels:S:1 n_minim_iter=9 pbc="T T T"
P        4.78772718       1.87372879       1.52494813       0.00000000 NULL
P        1.35560384       1.83572476       6.83864954       0.00000000 NULL
P        2.15989638       3.27864940       8.17312677       0.00000000 NULL
P        6.57596813       4.32234080       9.19897208       0.00000000 NULL
P        5.53131821       1.61295742       4.11158468       0.00000000 NULL
P        4.28070053       5.10059045       8.05861647       0.00000000 NULL
P        6.29678093       6.19568891       8.33411628       0.00000000 NULL
P        1.93001517       0.75213093       0.30525776       0.00000000 NULL
P        5.91851619       3.29005802       5.42505817       0.00000000 NULL
P        4.10576631       3.38033729       6.74470727       0.00000000 NULL
P        3.29075455       3.50563622       0.81572778       0.00000000 NULL
P        4.24525904       3.50864821       9.51651109       0.00000000 NULL
P        6.67665577       2.74451526       2.33883961       0.00000000 NULL
13
Lattice="6.11366869770615 0.12132657744886681 -0.07363052119246843 1.8244856581656008 4.911507913064679 0.15141575411908664 0.48333924575650167 2.414399474175577 10.430419849064995" Properties=species:S:1:pos:R:3:initial_magmoms:R:1:castep_labels:S:1 n_minim_iter=10 pbc="T T T"
P        4.78184776       1.86057509       1.51416881       0.00000000 NULL
P        1.34791745       1.82188606       6.78856849       0.00000000 NULL
P        2.14855282       3.25508079       8.11495908       0.00000000 NULL
P        6.56815022       4.28530211       9.13609863       0.00000000 NULL
P        5.52511331       1.59964611       4.07745802       0.00000000 NULL
P        4.27325186       5.06753053       7.99937564       0.00000000 NULL
P        6.28126920       6.15195213       8.27234321       0.00000000 NULL
P        1.92614232       0.74467819       0.30390950       0.00000000 NULL
P        5.91086359       3.26465956       5.38616490       0.00000000 NULL
P        4.09967303       3.35332832       6.69192248       0.00000000 NULL
P        3.28431429       3.48004861       0.80905485       0.00000000 NULL
P        4.23772384       3.47778695       9.45139226       0.00000000 NULL
P        6.65886818       2.71902737       2.32328788       0.00000000 NULL
13
Lattice="6.135770221981337 0.12088502247788248 -0.07285404112008687 1.8301967029420054 4.902432802430443 0.15355062078465992 0.4869149875459091 2.41463476428777 10.401303791592863" Properties=species:S:1:pos:R:3:initial_magmoms:R:1:castep_labels:S:1 n_minim_iter=11 pbc="T T T"
P        4.80088228       1.86040244       1.51156998       0.00000000 NULL
P        1.34878698       1.82089943       6.76851864       0.00000000 NULL
P        2.15164365       3.25338119       8.09404071       0.00000000 NULL
P        6.59787332       4.27771636       9.11655754       0.00000000 NULL
P        5.54777082       1.59937277       4.06233605       0.00000000 NULL
P        4.29257256       5.06662519       7.97798132       0.00000000 NULL
P        6.30298405       6.14704057       8.25028947       0.00000000 NULL
P        1.93225738       0.74224238       0.30480462       0.00000000 NULL
P        5.93631325       3.26235828       5.37322493       0.00000000 NULL
P        4.11763057       3.34839767       6.66975173       0.00000000 NULL
P        3.29678711       3.47381756       0.80823525       0.00000000 NULL
P        4.25594973       3.47101501       9.42995371       0.00000000 NULL
P        6.67655160       2.71255099       2.32021668       0.00000000 NULL
13
Lattice="6.4313796839104205 0.11127533794867726 -0.06183482210829314 1.9028595804449495 4.758018089369756 0.18268854545589688 0.5345187220864904 2.409069245775038 10.018415322800868" Properties=species:S:1:pos:R:3:initial_magmoms:R:1:castep_labels:S:1 n_minim_iter=12 pbc="T T T"
P        5.05633536       1.84922191       1.47830013       0.00000000 NULL
P        1.35041259       1.79965836       6.50382363       0.00000000 NULL
P        2.18333666       3.21865432       7.81986287       0.00000000 NULL
P        6.99914074       4.15537453       8.86369516       0.00000000 NULL
P        5.85096212       1.58484809       3.86260128       0.00000000 NULL
P        4.55452005       5.03163122       7.69797031       0.00000000 NULL
P        6.58526395       6.05337928       7.96178847       0.00000000 NULL
P        2.01417021       0.70469121       0.31668661       0.00000000 NULL
P        6.27991200       3.21732448       5.20525194       0.00000000 NULL
P        4.36224030       3.26604898       6.37587913       0.00000000 NULL
P        3.46266682       3.37234717       0.79826757       0.00000000 NULL
P        4.50304695       3.36197898       9.15073490       0.00000000 NULL
P        6.90291265       2.61165256       2.28055579       0.00000000 NULL
13
Lattice="6.6813412890962365 0.1616967579458401 -0.1583677488804569 2.023147798853774 4.915309224011297 0.09318343676440731 0.3761881140891165 2.3424970252636004 10.717887143528042" Properties=species:S:1:pos:R:3:initial_magmoms:R:1:castep_labels:S:1 n_minim_iter=13 pbc="T T T"
P        5.23136701       1.93458144       1.48484399       0.00000000 NULL
P        1.24171410       1.76087739       6.93180788       0.00000000 NULL
P        2.13373329       3.23600403       8.31743796       0.00000000 NULL
P        7.11894984       4.19369418       9.39845773       0.00000000 NULL
P        5.99281841       1.60240310       4.03454499       0.00000000 NULL
P        4.65283683       5.11883201       8.12205198       0.00000000 NULL
P        6.72164319       6.19143608       8.35970150       0.00000000 NULL
P        2.11271017       0.73458123       0.29878543       0.00000000 NULL
P        6.45861007       3.30864142       5.46177283       0.00000000 NULL
P        4.46690951       3.30084128       6.70320320       0.00000000 NULL
P        3.61801367       3.47575346       0.75678550       0.00000000 NULL
P        4.54406030       3.33294437       9.74131279       0.00000000 NULL
P        7.15879863       2.71874958       2.30073937       0.00000000 NULL
13
Lattice="6.397840810469198 0.12070900322009108 -0.12979783511580242 1.903001442448776 4.654673351177066 0.0956718482657839 0.39194373213553324 2.2227506229636544 10.240637302233983" Properties=species:S:1:pos:R:3:initial_magmoms:R:1:castep_labels:S:1 n_minim_iter=14 pbc="T T T"
P        5.00618074       1.81290417       1.43573339       0.00000000 NULL
P        1.20646711       1.66783816       6.62798657       0.00000000 NULL
P        2.05325756       3.06176953       7.95371540       0.00000000 NULL
P        6.83503228       3.94562614       9.00203489       0.00000000 NULL
P        5.75102472       1.49534262       3.86998844       0.00000000 NULL
P        4.45775192       4.83461584       7.77399212       0.00000000 NULL
P        6.42938046       5.84486955       8.00844063       0.00000000 NULL
P        2.02188045       0.68520596       0.29011971       0.00000000 NULL
P        6.18441611       3.10784047       5.24020285       0.00000000 NULL
P        4.29052619       3.11229221       6.41754463       0.00000000 NULL
P        3.44775986       3.28137138       0.73384553       0.00000000 NULL
P        4.37093971       3.13961341       9.32236474       0.00000000 NULL
P        6.83851898       2.54293578       2.22367448       0.00000000 NULL
13
Lattice="6.43498418238892 0.12517637517103747 -0.11174977975268456 1.9178353281512912 4.666178613404387 0.1159240329541419 0.4354531701010507 2.2594218342939842 10.2739935399292" Properties=species:S:1:pos:R:3:initial_magmoms:R:1:castep_labels:S:1 n_minim_iter=15 pbc="T T T"
P        5.04070266       1.82537662       1.45867581       0.00000000 NULL
P        1.23661509       1.69153650       6.65195175       0.00000000 NULL
P        2.09717308       3.09630511       7.98915085       0.00000000 NULL
P        6.91331898       3.98618253       9.05921866       0.00000000 NULL
P        5.80086647       1.51411545       3.89810234       0.00000000 NULL
P        4.51699975       4.87171185       7.82096520       0.00000000 NULL
P        6.50330871       5.88876727       8.06417040       0.00000000 NULL
P        2.03735912       0.68940615       0.29861010       0.00000000 NULL
P        6.24389141       3.13711723       5.28121853       0.00000000 NULL
P        4.34473749       3.14090641       6.45213351       0.00000000 NULL
P        3.47268627       3.29181812       0.75575783       0.00000000 NULL
P        4.43586651       3.17566683       9.36939156       0.00000000 NULL
P        6.88928505       2.56043832       2.25717351       0.00000000 NULL
13
Lattice="6.4422709815854295 0.1224330795198612 -0.09976353420254562 1.9171072700379523 4.653749519344953 0.12441087831843814 0.46027588603805997 2.2650775911032404 10.262898709617334" Properties=species:S:1:pos:R:3:initial_magmoms:R:1:castep_labels:S:1 n_minim_iter=16 pbc="T T T"
P        5.04829119       1.82145270       1.46751892       0.00000000 NULL
P        1.25027411       1.69364227       6.64623479       0.00000000 NULL
P        2.11579154       3.09812311       7.98524252       0.00000000 NULL
P        6.94220929       3.98314495       9.06674487       0.00000000 NULL
P        5.81668861       1.51240918       3.90278212       0.00000000 NULL
P        4.53859412       4.86599383       7.82352530       0.00000000 NULL
P        6.52766184       5.88259388       8.07076320       0.00000000 NULL
P        2.04213605       0.68754639       0.30242577       0.00000000 NULL
P        6.26293835       3.13453411       5.28938897       0.00000000 NULL
P        4.36616642       3.13797242       6.45163498       0.00000000 NULL
P        3.47625564       3.28181805       0.76469368       0.00000000 NULL
P        4.46351489       3.17387289       9.36972664       0.00000000 NULL
P        6.90048623       2.55410689       2.26990064       0.00000000 NULL
13
Lattice="6.464189941243312 0.11573039300617942 -0.08472797536027354 1.9164743967022353 4.6370269948266065 0.13405110998231945 0.4912692332314266 2.2696552753402104 10.257388285915546" Properties=species:S:1:pos:R:3:initial_magmoms:R:1:castep_labels:S:1 n_minim_iter=17 pbc="T T T"
P        5.06631448       1.81428894       1.47933959       0.00000000 NULL
P        1.26655091       1.69380616       6.64417568       0.00000000 NULL
P        2.14001357       3.09841983       7.98628722       0.00000000 NULL
P        6.98992905       3.97330132       9.08587784       0.00000000 NULL
P        5.84698976       1.50613536       3.91063902       0.00000000 NULL
P        4.57164864       4.85434185       7.83238306       0.00000000 NULL
P        6.56736624       5.87118703       8.08437626       0.00000000 NULL
P        2.05326564       0.68449313       0.30717629       0.00000000 NULL
P        6.29810100       3.12816960       5.30400047       0.00000000 NULL
P        4.40120822       3.13006490       6.45386566       0.00000000 NULL
P        3.48506574       3.26610614       0.77599787       0.00000000 NULL
P        4.50654496       3.16523272       9.37909015       0.00000000 NULL
P        6.92598136       2.54230039       2.28727382       0.00000000 NULL
13
Lattice="6.48807089984649 0.10180158398450025 -0.07655938953633507 1.9091249106914618 4.607896161303684 0.13382089593503177 0.5049293733984167 2.252489271898015 10.246922793661835" Properties=species:S:1:pos:R:3:initial_magmoms:R:1:castep_labels:S:1 n_minim_iter=18 pbc="T T T"
P        5.08113942       1.79683999       1.48242607       0.00000000 NULL
P        1.26675472       1.67793027       6.63725400       0.00000000 NULL
P        2.14552992       3.07857875       7.97866933       0.00000000 NULL
P        7.02132044       3.93195037       9.09559509       0.00000000 NULL
P        5.87068367       1.48347229       3.90776866       0.00000000 NULL
P        4.58839847       4.81396656       7.82776196       0.00000000 NULL
P        6.58864730       5.82991683       8.08002430       0.00000000 NULL
P        2.06675651       0.67801866       0.30800771       0.00000000 NULL
P        6.32501237       3.10206579       5.30719278       0.00000000 NULL
P        4.42678954       3.09926497       6.44189987       0.00000000 NULL
P        3.48901497       3.23583414       0.77860175       0.00000000 NULL
P        4.53624658       3.12587353       9.38084737       0.00000000 NULL
P        6.94503540       2.51414575       2.29241790       0.00000000 NULL
13
Lattice="6.5354841125131395 0.0893138814976933 -0.07439181792457943 1.909777167695743 4.581002542163192 0.13378008826710636 0.5088024844543917 2.240134038151783 10.279601790918449" Properties=species:S:1:pos:R:3:initial_magmoms:R:1:castep_labels:S:1 n_minim_iter=19 pbc="T T T"
P        5.11176214       1.78488197       1.48688835       0.00000000 NULL
P        1.25242144       1.66356085       6.65610327       0.00000000 NULL
P        2.14189991       3.06810168       8.00279809       0.00000000 NULL
P        7.06823019       3.89594278       9.14943724       0.00000000 NULL
P        5.90888212       1.46257310       3.91235600       0.00000000 NULL
P        4.61375267       4.77774791       7.85386896       0.00000000 NULL
P        6.62518142       5.80147352       8.10352638       0.00000000 NULL
P        2.09464705       0.67433657       0.30662556       0.00000000 NULL
P        6.37435576       3.08639380       5.32974880       0.00000000 NULL
P        4.46673507       3.07004154       6.44482966       0.00000000 NULL
P        3.50612322       3.20243713       0.78390003       0.00000000 NULL
P        4.57961829       3.08354910       9.42539091       0.00000000 NULL
P        6.98546682       2.49086804       2.30014842       0.00000000 NULL
13
Lattice="6.505049232819121 0.07972353096914785 -0.07267355341624587 1.8916623517819526 4.5407412288439355 0.12795959704989335 0.5054655719192085 2.2102592859721035 10.217811003859829" Properties=species:S:1:pos:R:3:initial_magmoms:R:1:castep_labels:S:1 n_minim_iter=20 pbc="T T T"
P        5.08503099       1.76343913       1.47692550       0.00000000 NULL
P        1.24015893       1.64080099       6.61595281       0.00000000 NULL
P        2.12341470       3.03364520       7.95309315       0.00000000 NULL
P        7.03144690       3.84418706       9.09878358       0.00000000 NULL
P        5.87938813       1.43836021       3.88708906       0.00000000 NULL
P        4.58549658       4.72269476       7.80414837       0.00000000 NULL
P        6.58494722       5.73939332       8.05044861       0.00000000 NULL
P        2.08740402       0.66620249       0.30314375       0.00000000 NULL
P        6.34238922       3.04936390       5.29745345       0.00000000 NULL
P        4.44489090       3.03084060       6.40085908       0.00000000 NULL
P        3.48442318       3.16822322       0.77699865       0.00000000 NULL
P        4.55908578       3.03753264       9.37155228       0.00000000 NULL
P        6.94689556       2.45899163       2.28487108       0.00000000 NULL
13
Lattice="6.5305635273785425 0.07846134138199538 -0.07378876298808774 1.8974989662518003 4.550241629410476 0.1312614990525013 0.5050347766919749 2.2218417665226577 10.25211036655522" Properties=species:S:1:pos:R:3:initial_magmoms:R:1:castep_labels:S:1 n_minim_iter=21 pbc="T T T"
P        5.10353358       1.76770243       1.48196462       0.00000000 NULL
P        1.24057781       1.64791956       6.63774148       0.00000000 NULL
P        2.12782813       3.04635651       7.98029268       0.00000000 NULL
P        7.05604185       3.85700993       9.13240981       0.00000000 NULL
P        5.90064843       1.44238549       3.89887005       0.00000000 NULL
P        4.60038728       4.73671364       7.83208954       0.00000000 NULL
P        6.60761217       5.75723386       8.07881821       0.00000000 NULL
P        2.09683295       0.66797107       0.30381125       0.00000000 NULL
P        6.36682434       3.05972495       5.31596133       0.00000000 NULL
P        4.46096540       3.03998588       6.42078456       0.00000000 NULL
P        3.49673437       3.17358158       0.78169847       0.00000000 NULL
P        4.57655535       3.04748731       9.40460357       0.00000000 NULL
P        6.97328061       2.46490670       2.29250868       0.00000000 NULL
13
Lattice="6.533043370053816 0.07566180757148742 -0.07321339066462167 1.895375737395727 4.545009098182958 0.13126193411356754 0.5053084666562782 2.219373258307668 10.250937875165663" Properties=species:S:1:pos:R:3:initial_magmoms:R:1:castep_labels:S:1 n_minim_iter=22 pbc="T T T"
P        5.10436079       1.76447876       1.48201670       0.00000000 NULL
P        1.23838985       1.64535167       6.63685267       0.00000000 NULL
P        2.12586345       3.04348518       7.97935479       0.00000000 NULL
P        7.05776285       3.85003631       9.13430849       0.00000000 NULL
P        5.90213650       1.43828386       3.89801059       0.00000000 NULL
P        4.60022132       4.72952534       7.83164383       0.00000000 NULL
P        6.60756976       5.75011274       8.07783002       0.00000000 NULL
P        2.09886173       0.66684060       0.30333309       0.00000000 NULL
P        6.36924026       3.05534946       5.31611939       0.00000000 NULL
P        4.46267745       3.03446148       6.41843254       0.00000000 NULL
P        3.49634466       3.16787157       0.78223958       0.00000000 NULL
P        4.57970506       3.04055097       9.40526572       0.00000000 NULL
P        6.97446029       2.45994883       2.29243150       0.00000000 NULL
