10
Lattice="5.300359999999998 1.7574317857373654e-15 -9.195725180298014e-16 -1.6852244839315782 5.025319349887879 -9.195725180298035e-16 -1.398143700220529 -1.943528412534644 8.351642386070194" Properties=species:S:1:pos:R:3:initial_magmoms:R:1:castep_labels:S:1 n_minim_iter=1 pbc="T T T"
P        2.22799439       0.03594176       5.53067223       0.00000000 NULL
P       -0.67430360       2.12380918       5.53067223       0.00000000 NULL
P       -0.57851078       0.95149395       1.14836503       0.00000000 NULL
P        1.08605482      -0.24596830       1.14836503       0.00000000 NULL
P       -0.26378124       2.89064963       0.53440740       0.00000000 NULL
P        2.82451912       0.66897504       0.53440740       0.00000000 NULL
P        1.54316080       4.28552368       2.44940058       0.00000000 NULL
P        3.57250314       2.82564679       2.44940058       0.00000000 NULL
P        1.33128449       0.11210789       7.41938613       0.00000000 NULL
P       -0.31698511       1.29784706       7.41938613       0.00000000 NULL
10
Lattice="5.310074085450668 -0.0009085019555230198 -0.00106005339090404 -1.689174390559993 5.034240508420992 -0.0010600533909040349 -1.4020432796535889 -1.94894913103725 8.360002452529004" Properties=species:S:1:pos:R:3:initial_magmoms:R:1:castep_labels:S:1 n_minim_iter=2 pbc="T T T"
P        2.23100014       0.03403678       5.53519088       0.00000000 NULL
P       -0.67706539       2.12605328       5.53519088       0.00000000 NULL
P       -0.57991999       0.95283910       1.14942627       0.00000000 NULL
P        1.08777822      -0.24687670       1.14942627       0.00000000 NULL
P       -0.26494068       2.89541671       0.53413649       0.00000000 NULL
P        2.82940747       0.66939143       0.53413649       0.00000000 NULL
P        1.54488586       4.29187269       2.45016979       0.00000000 NULL
P        3.57797422       2.82930097       2.45016979       0.00000000 NULL
P        1.33234723       0.11010673       7.42557756       0.00000000 NULL
P       -0.31922032       1.29821840       7.42557756       0.00000000 NULL
10
Lattice="5.568279641481509 -0.02586448616337763 -0.02935074194611022 -1.79493062508851 5.271112898478019 -0.029350741946110103 -1.5055795528170197 -2.092872597980839 8.576036738949211" Properties=species:S:1:pos:R:3:initial_magmoms:R:1:castep_labels:S:1 n_minim_iter=3 pbc="T T T"
P        2.31077546      -0.01717532       5.65118210       0.00000000 NULL
P       -0.75098423       2.18540634       5.65118210       0.00000000 NULL
P       -0.61755545       0.98846122       1.17682499       0.00000000 NULL
P        1.13351790      -0.27123333       1.17682499       0.00000000 NULL
P       -0.29628635       3.02178058       0.52645578       0.00000000 NULL
P        2.95918041       0.67984911       0.52645578       0.00000000 NULL
P        1.59021022       4.45977219       2.46860531       0.00000000 NULL
P        3.72275059       2.92565626       2.46860531       0.00000000 NULL
P        1.36053147       0.05667567       7.58440482       0.00000000 NULL
P       -0.37883984       1.30795197       7.58440482       0.00000000 NULL
10
Lattice="5.620285841534698 -0.043296927619647756 -0.027717019476514716 -1.8279936070391432 5.314877885438264 -0.027717019476514598 -1.5103315752989872 -2.0994782785766533 8.512242854808793" Properties=species:S:1:pos:R:3:initial_magmoms:R:1:castep_labels:S:1 n_minim_iter=4 pbc="T T T"
P        2.33387016      -0.02329649       5.61220983       0.00000000 NULL
P       -0.76413062       2.20535643       5.61220983       0.00000000 NULL
P       -0.62644576       0.99742666       1.17163776       0.00000000 NULL
P        1.14484474      -0.27681180       1.17163776       0.00000000 NULL
P       -0.30987474       3.04345570       0.52315817       0.00000000 NULL
P        2.98405115       0.67385734       0.52315817       0.00000000 NULL
P        1.59545691       4.48696629       2.45229485       0.00000000 NULL
P        3.74686540       2.93927694       2.45229485       0.00000000 NULL
P        1.37665775       0.05967389       7.52513365       0.00000000 NULL
P       -0.38112448       1.32419471       7.52513365       0.00000000 NULL
10
Lattice="5.661778149362926 -0.06549710511039926 -0.024790264659147035 -1.862234080245147 5.34715867669502 -0.024790264659146927 -1.5085245892630736 -2.096966427540671 8.390415336245677" Properties=species:S:1:pos:R:3:initial_magmoms:R:1:castep_labels:S:1 n_minim_iter=5 pbc="T T T"
P        2.35377628      -0.03065712       5.53668162       0.00000000 NULL
P       -0.77743836       2.22188932       5.53668162       0.00000000 NULL
P       -0.63541910       1.00433392       1.16045699       0.00000000 NULL
P        1.15424661      -0.28312338       1.16045699       0.00000000 NULL
P       -0.32687876       3.05768111       0.51729565       0.00000000 NULL
P        3.00294474       0.66225858       0.51729565       0.00000000 NULL
P        1.59666215       4.50177591       2.42049689       0.00000000 NULL
P        3.76052334       2.94512829       2.42049689       0.00000000 NULL
P        1.39150101       0.06656061       7.41365524       0.00000000 NULL
P       -0.37931446       1.34045735       7.41365524       0.00000000 NULL
10
Lattice="5.723219532944121 -0.11170799207827302 -0.03161722195739333 -1.9255820393258132 5.390719275532081 -0.031617221957393214 -1.518544289346902 -2.110894589427696 8.203783900829904" Properties=species:S:1:pos:R:3:initial_magmoms:R:1:castep_labels:S:1 n_minim_iter=6 pbc="T T T"
P        2.37258945      -0.06581049       5.40912713       0.00000000 NULL
P       -0.81674915       2.22854942       5.40912713       0.00000000 NULL
P       -0.65480512       1.00925258       1.14370883       0.00000000 NULL
P        1.16507373      -0.29993958       1.14370883       0.00000000 NULL
P       -0.36414849       3.07239316       0.50085675       0.00000000 NULL
P        3.02874310       0.63160044       0.50085675       0.00000000 NULL
P        1.58742598       4.50377589       2.35234465       0.00000000 NULL
P        3.76535614       2.93700727       2.35234465       0.00000000 NULL
P        1.39571750       0.05852412       7.22971278       0.00000000 NULL
P       -0.38827454       1.34189987       7.22971278       0.00000000 NULL
10
Lattice="5.751120016214353 -0.16287989514511161 -0.05251318523454764 -1.9829694115369252 5.400902111134099 -0.052513185234547524 -1.5400655539377504 -2.140810819926315 8.19559580519446" Properties=species:S:1:pos:R:3:initial_magmoms:R:1:castep_labels:S:1 n_minim_iter=7 pbc="T T T"
P        2.36589013      -0.12473169       5.38048155       0.00000000 NULL
P       -0.87048285       2.20346401       5.38048155       0.00000000 NULL
P       -0.67433809       1.00251412       1.14865066       0.00000000 NULL
P        1.16489535      -0.32060142       1.14865066       0.00000000 NULL
P       -0.40429004       3.06600637       0.48616660       0.00000000 NULL
P        3.03545054       0.59151122       0.48616660       0.00000000 NULL
P        1.55854571       4.46552552       2.31293288       0.00000000 NULL
P        3.73827296       2.89746410       2.31293288       0.00000000 NULL
P        1.36800833       0.02272020       7.19556392       0.00000000 NULL
P       -0.41341057       1.30424487       7.19556392       0.00000000 NULL
10
Lattice="5.7349491745442265 -0.19170602976295806 -0.04883311003580927 -2.0051582880980003 5.376405255942384 -0.04883311003580915 -1.5194314377502844 -2.112127794661061 8.12583614764287" Properties=species:S:1:pos:R:3:initial_magmoms:R:1:castep_labels:S:1 n_minim_iter=8 pbc="T T T"
P        2.36429786      -0.13533331       5.33615234       0.00000000 NULL
P       -0.88002809       2.19858363       5.33615234       0.00000000 NULL
P       -0.67767594       0.99787231       1.14576424       0.00000000 NULL
P        1.16155566      -0.32524191       1.14576424       0.00000000 NULL
P       -0.42154690       3.04735153       0.48395281       0.00000000 NULL
P        3.02325046       0.56921862       0.48395281       0.00000000 NULL
P        1.53951652       4.42827597       2.29687730       0.00000000 NULL
P        3.70900657       2.86757903       2.29687730       0.00000000 NULL
P        1.36707485       0.02887720       7.13513159       0.00000000 NULL
P       -0.40727626       1.30531742       7.13513159       0.00000000 NULL
10
Lattice="5.7564531455190995 -0.20779752406587013 -0.05299339924307078 -2.0272518659073655 5.391677150918791 -0.052993399243070664 -1.5257586707782456 -2.1209231403473665 8.141205820367281" Properties=species:S:1:pos:R:3:initial_magmoms:R:1:castep_labels:S:1 n_minim_iter=9 pbc="T T T"
P        2.37009834      -0.14984767       5.34107359       0.00000000 NULL
P       -0.89563352       2.19946835       5.34107359       0.00000000 NULL
P       -0.68382687       0.99853894       1.14982492       0.00000000 NULL
P        1.16414336      -0.33086171       1.14982492       0.00000000 NULL
P       -0.43304371       3.05284153       0.48157211       0.00000000 NULL
P        3.03211094       0.56006390       0.48157211       0.00000000 NULL
P        1.53447798       4.42810580       2.29404673       0.00000000 NULL
P        3.71044720       2.86274784       2.29404673       0.00000000 NULL
P        1.36568055       0.02042239       7.14384243       0.00000000 NULL
P       -0.41484903       1.30130730       7.14384243       0.00000000 NULL
10
Lattice="5.760007144675129 -0.22155486750917144 -0.0537676217455284 -2.04142530518362 5.39067264721032 -0.05376762174552828 -1.522871554268292 -2.116909824000479 8.131717121362149" Properties=species:S:1:pos:R:3:initial_magmoms:R:1:castep_labels:S:1 n_minim_iter=10 pbc="T T T"
P        2.37162024      -0.15841996       5.33303901       0.00000000 NULL
P       -0.90424486       2.19818576       5.33303901       0.00000000 NULL
P       -0.68696899       0.99724772       1.15103257       0.00000000 NULL
P        1.16391816      -0.33425132       1.15103257       0.00000000 NULL
P       -0.44178844       3.04987934       0.48005601       0.00000000 NULL
P        3.03208280       0.55083113       0.48005601       0.00000000 NULL
P        1.52742937       4.41770173       2.28938972       0.00000000 NULL
P        3.70282409       2.85275706       2.28938972       0.00000000 NULL
P        1.36462711       0.01836114       7.13390700       0.00000000 NULL
P       -0.41646839       1.29965316       7.13390700       0.00000000 NULL
10
Lattice="5.771474971661709 -0.26035928867177327 -0.056319500814277064 -2.0818622700963614 5.389207715060206 -0.05631950081427695 -1.5156887509095989 -2.106925169056164 8.109268742246798" Properties=species:S:1:pos:R:3:initial_magmoms:R:1:castep_labels:S:1 n_minim_iter=11 pbc="T T T"
P        2.37620547      -0.18310324       5.31284503       0.00000000 NULL
P       -0.92910516       2.19468513       5.31284503       0.00000000 NULL
P       -0.69591377       0.99353760       1.15494034       0.00000000 NULL
P        1.16324452      -0.34391156       1.15494034       0.00000000 NULL
P       -0.46632231       3.04236078       0.47567270       0.00000000 NULL
P        3.03275482       0.52517985       0.47567270       0.00000000 NULL
P        1.50791839       4.38912557       2.27696799       0.00000000 NULL
P        3.68193419       2.82517288       2.27696799       0.00000000 NULL
P        1.36155220       0.01165985       7.10945598       0.00000000 NULL
P       -0.42184428       1.29460716       7.10945598       0.00000000 NULL
10
Lattice="5.782563330911189 -0.30358581739077684 -0.0591511961941019 -2.126371225279396 5.38597701785139 -0.0591511961941018 -1.507225257872974 -2.095160255919285 8.087558274719056" Properties=species:S:1:pos:R:3:initial_magmoms:R:1:castep_labels:S:1 n_minim_iter=12 pbc="T T T"
P        2.38068410      -0.21055700       5.29249211       0.00000000 NULL
P       -0.95655828       2.19020256       5.29249211       0.00000000 NULL
P       -0.70527238       0.98845390       1.15983186       0.00000000 NULL
P        1.16140014      -0.35440088       1.15983186       0.00000000 NULL
P       -0.49283601       3.03329217       0.47065750       0.00000000 NULL
P        3.03258669       0.49715866       0.47065750       0.00000000 NULL
P        1.48611953       4.35550723       2.26420724       0.00000000 NULL
P        3.65699118       2.79381638       2.26420724       0.00000000 NULL
P        1.35799762       0.00361825       7.08538544       0.00000000 NULL
P       -0.42833844       1.28868025       7.08538544       0.00000000 NULL
10
Lattice="5.792152240057235 -0.3458325471042323 -0.06195307165419429 -2.1694744810517634 5.381636200887408 -0.0619530716541942 -1.4986785205254654 -2.083279626720202 8.07031084097524" Properties=species:S:1:pos:R:3:initial_magmoms:R:1:castep_labels:S:1 n_minim_iter=13 pbc="T T T"
P        2.38452054      -0.23738662       5.27523068       0.00000000 NULL
P       -0.98321546       2.18530957       5.27523068       0.00000000 NULL
P       -0.71377703       0.98260632       1.16520475       0.00000000 NULL
P        1.15856001      -0.36432343       1.16520475       0.00000000 NULL
P       -0.51792410       3.02388345       0.46565995       0.00000000 NULL
P        3.03164284       0.47038095       0.46565995       0.00000000 NULL
P        1.46493284       4.32110992       2.25297065       0.00000000 NULL
P        3.63111499       2.76279263       2.25297065       0.00000000 NULL
P        1.35450963      -0.00492209       7.06546469       0.00000000 NULL
P       -0.43532662       1.28265789       7.06546469       0.00000000 NULL
10
Lattice="5.799368783942081 -0.38784098338493933 -0.06457902047596907 -2.211597526306063 5.375121887193981 -0.06457902047596899 -1.4893161680391909 -2.0702652290854173 8.056216292215788" Properties=species:S:1:pos:R:3:initial_magmoms:R:1:castep_labels:S:1 n_minim_iter=14 pbc="T T T"
P        2.38751603      -0.26379693       5.26033332       0.00000000 NULL
P       -1.00920772       2.17975259       5.26033332       0.00000000 NULL
P       -0.72141341       0.97585124       1.17105564       0.00000000 NULL
P        1.15458341      -0.37371130       1.17105564       0.00000000 NULL
P       -0.54202038       3.01334869       0.46073769       0.00000000 NULL
P        3.02931604       0.44418557       0.46073769       0.00000000 NULL
P        1.44383009       4.28458279       2.24308720       0.00000000 NULL
P        3.60319281       2.73117129       2.24308720       0.00000000 NULL
P        1.35102178      -0.01368307       7.04852381       0.00000000 NULL
P       -0.44252404       1.27656552       7.04852381       0.00000000 NULL
10
Lattice="5.805835235539429 -0.4298641058301353 -0.06735074106885836 -2.2534960073380232 5.367891734808363 -0.06735074106885827 -1.4799802578923087 -2.0572875883575907 8.048692779803059" Properties=species:S:1:pos:R:3:initial_magmoms:R:1:castep_labels:S:1 n_minim_iter=15 pbc="T T T"
P        2.39004488      -0.29038730       5.24975918       0.00000000 NULL
P       -1.03522233       2.17369593       5.24975918       0.00000000 NULL
P       -0.72842505       0.96838030       1.17781834       0.00000000 NULL
P        1.14972946      -0.38273445       1.17781834       0.00000000 NULL
P       -0.56541145       3.00239132       0.45590497       0.00000000 NULL
P        3.02636433       0.41852445       0.45590497       0.00000000 NULL
P        1.42301995       4.24674963       2.23505553       0.00000000 NULL
P        3.57393933       2.69941213       2.23505553       0.00000000 NULL
P        1.34747397      -0.02324745       7.03718266       0.00000000 NULL
P       -0.45046411       1.27016086       7.03718266       0.00000000 NULL
10
Lattice="5.807347791841571 -0.47122217452684056 -0.0695279014557349 -2.2931888772203024 5.356176200104519 -0.06952790145573481 -1.4686446230361434 -2.04153017485739 8.04324676820399" Properties=species:S:1:pos:R:3:initial_magmoms:R:1:castep_labels:S:1 n_minim_iter=16 pbc="T T T"
P        2.39104356      -0.31580087       5.24132411       0.00000000 NULL
P       -1.05963469       2.16656266       5.24132411       0.00000000 NULL
P       -0.73409684       0.95980087       1.18500214       0.00000000 NULL
P        1.14339854      -0.39083971       1.18500214       0.00000000 NULL
P       -0.58742092       2.98902240       0.45143953       0.00000000 NULL
P        3.02068695       0.39340649       0.45143953       0.00000000 NULL
P        1.40212882       4.20526407       2.22877314       0.00000000 NULL
P        3.54124873       2.66641493       2.22877314       0.00000000 NULL
P        1.34387932      -0.03216031       7.02812300       0.00000000 NULL
P       -0.45777156       1.26391893       7.02812300       0.00000000 NULL
10
Lattice="5.812997342855059 -0.5140893722082245 -0.0724788480392474 -2.3356279039420493 5.347903167128656 -0.07247884803924716 -1.459066126116117 -2.028215319660095 8.051628759387809" Properties=species:S:1:pos:R:3:initial_magmoms:R:1:castep_labels:S:1 n_minim_iter=17 pbc="T T T"
P        2.39307810      -0.34302504       5.24140307       0.00000000 NULL
P       -1.08609304       2.15983584       5.24140307       0.00000000 NULL
P       -0.74003567       0.95116369       1.19408093       0.00000000 NULL
P        1.13709778      -0.39921652       1.19408093       0.00000000 NULL
P       -0.60987622       2.97727393       0.44706128       0.00000000 NULL
P        3.01668768       0.36838103       0.44706128       0.00000000 NULL
P        1.38169334       4.16457802       2.22550933       0.00000000 NULL
P        3.50917129       2.63410392       2.22550933       0.00000000 NULL
P        1.34049795      -0.04323594       7.03030642       0.00000000 NULL
P       -0.46719738       1.25719158       7.03030642       0.00000000 NULL
10
Lattice="5.804793254949199 -0.5553264377772087 -0.07321474143413251 -2.3721166884263347 5.327013666369492 -0.07321474143413226 -1.4429408093572247 -2.005799876042186 8.050687773568002" Properties=species:S:1:pos:R:3:initial_magmoms:R:1:castep_labels:S:1 n_minim_iter=18 pbc="T T T"
P        2.39137900      -0.36630109       5.23781611       0.00000000 NULL
P       -1.10762105       2.15082439       5.23781611       0.00000000 NULL
P       -0.74330786       0.94070166       1.20222435       0.00000000 NULL
P        1.12821901      -0.40564527       1.20222435       0.00000000 NULL
P       -0.62973902       2.95882048       0.44351475       0.00000000 NULL
P        3.00550708       0.34368175       0.44351475       0.00000000 NULL
P        1.35994968       4.11492353       2.22333964       0.00000000 NULL
P        3.46900670       2.59770116       2.22333964       0.00000000 NULL
P        1.33714016      -0.05066811       7.02618861       0.00000000 NULL
P       -0.47317630       1.25164501       7.02618861       0.00000000 NULL
10
Lattice="5.818867101225199 -0.602056062320552 -0.07793663704615537 -2.4208961820377244 5.325499743657216 -0.07793663704615511 -1.4369586666419312 -1.997484232712265 8.08899927049762" Properties=species:S:1:pos:R:3:initial_magmoms:R:1:castep_labels:S:1 n_minim_iter=19 pbc="T T T"
P        2.39540565      -0.39795854       5.25628078       0.00000000 NULL
P       -1.13891603       2.14457676       5.25628078       0.00000000 NULL
P       -0.75005305       0.93201626       1.21548541       0.00000000 NULL
P        1.12212891      -0.41480193       1.21548541       0.00000000 NULL
P       -0.65352469       2.95011739       0.43921277       0.00000000 NULL
P        3.00481814       0.31836323       0.43921277       0.00000000 NULL
P        1.33980048       4.07490828       2.22652572       0.00000000 NULL
P        3.43747423       2.56587486       2.22652572       0.00000000 NULL
P        1.33377267      -0.06659324       7.05242607       0.00000000 NULL
P       -0.48720438       1.24338894       7.05242607       0.00000000 NULL
10
Lattice="5.8148371554081555 -0.6062615787950711 -0.07759427796304062 -2.4236021680378967 5.320341791362687 -0.07759427796304036 -1.4338141170747793 -1.9931130644071622 8.087128546799843" Properties=species:S:1:pos:R:3:initial_magmoms:R:1:castep_labels:S:1 n_minim_iter=20 pbc="T T T"
P        2.39429613      -0.39975365       5.25522040       0.00000000 NULL
P       -1.14026522       2.14295406       5.25522040       0.00000000 NULL
P       -0.74985891       0.93048465       1.21617878       0.00000000 NULL
P        1.12061505      -0.41510482       1.21617878       0.00000000 NULL
P       -0.65516391       2.94655445       0.43897274       0.00000000 NULL
P        3.00196126       0.31567625       0.43897274       0.00000000 NULL
P        1.33699568       4.06735402       2.22652196       0.00000000 NULL
P        3.43120375       2.56081375       2.22652196       0.00000000 NULL
P        1.33329124      -0.06675011       7.05077041       0.00000000 NULL
P       -0.48720004       1.24288262       7.05077041       0.00000000 NULL
10
Lattice="5.8076549701952445 -0.6172028966933152 -0.07722804320315205 -2.4316921887493934 5.310053556010084 -0.07722804320315178 -1.4273305667198994 -1.984100425486842 8.086434953724869" Properties=species:S:1:pos:R:3:initial_magmoms:R:1:castep_labels:S:1 n_minim_iter=21 pbc="T T T"
P        2.39227380      -0.40513156       5.25471477       0.00000000 NULL
P       -1.14472108       2.13932680       5.25471477       0.00000000 NULL
P       -0.74984265       0.92699109       1.21836829       0.00000000 NULL
P        1.11729760      -0.41620017       1.21836829       0.00000000 NULL
P       -0.65970744       2.93901357       0.43826673       0.00000000 NULL
P        2.99625628       0.30897091       0.43826673       0.00000000 NULL
P        1.33026947       4.05010941       2.22690135       0.00000000 NULL
P        3.41699253       2.54895373       2.22690135       0.00000000 NULL
P        1.33209462      -0.06809980       7.04966316       0.00000000 NULL
P       -0.48809923       1.24131897       7.04966316       0.00000000 NULL
10
Lattice="5.805795685298926 -0.6255013540271548 -0.07754189598381298 -2.438968880480537 5.30565229574771 -0.07754189598381271 -1.4242917827717767 -1.9798762796127094 8.090576131469275" Properties=species:S:1:pos:R:3:initial_magmoms:R:1:castep_labels:S:1 n_minim_iter=22 pbc="T T T"
P        2.39165238      -0.41000854       5.25685460       0.00000000 NULL
P       -1.14914741       2.13718701       5.25685460       0.00000000 NULL
P       -0.75036858       0.92487393       1.22045289       0.00000000 NULL
P        1.11545752      -0.41737195       1.22045289       0.00000000 NULL
P       -0.66345190       2.93517190       0.43763256       0.00000000 NULL
P        2.99380449       0.30419930       0.43763256       0.00000000 NULL
P        1.32576738       4.03963347       2.22762136       0.00000000 NULL
P        3.40849163       2.54135448       2.22762136       0.00000000 NULL
P        1.33122173      -0.07019485       7.05239314       0.00000000 NULL
P       -0.48980803       1.23982526       7.05239314       0.00000000 NULL
10
Lattice="5.798097608283769 -0.671923327754514 -0.0799091670812945 -2.480534407155509 5.28359403138473 -0.07990916708129424 -1.408969268612253 -1.9585767940048984 8.118546732313176" Properties=species:S:1:pos:R:3:initial_magmoms:R:1:castep_labels:S:1 n_minim_iter=23 pbc="T T T"
P        2.38872892      -0.43811908       5.27147901       0.00000000 NULL
P       -1.17486977       2.12547764       5.27147901       0.00000000 NULL
P       -0.75364340       0.91341837       1.23259607       0.00000000 NULL
P        1.10563761      -0.42411908       1.23259607       0.00000000 NULL
P       -0.68453934       2.91505472       0.43390207       0.00000000 NULL
P        2.98143587       0.27780995       0.43390207       0.00000000 NULL
P        1.30104210       3.98272635       2.23213912       0.00000000 NULL
P        3.36239875       2.49981887       2.23213912       0.00000000 NULL
P        1.32612430      -0.08315146       7.07126278       0.00000000 NULL
P       -0.50047161       1.23087284       7.07126278       0.00000000 NULL
10
Lattice="5.796772187482481 -0.7213034879492728 -0.08522800415153316 -2.5269307732403483 5.266637198682775 -0.0852280041515329 -1.3988937552552212 -1.944571047330093 8.166157289898075" Properties=species:S:1:pos:R:3:initial_magmoms:R:1:castep_labels:S:1 n_minim_iter=24 pbc="T T T"
P        2.38562971      -0.47194645       5.29659472       0.00000000 NULL
P       -1.20595642       2.11178399       5.29659472       0.00000000 NULL
P       -0.75825842       0.90192087       1.24708081       0.00000000 NULL
P        1.09620406      -0.43215020       1.24708081       0.00000000 NULL
P       -0.70712726       2.89702071       0.42872251       0.00000000 NULL
P        2.97151938       0.25066031       0.42872251       0.00000000 NULL
P        1.27516768       3.92550766       2.23805446       0.00000000 NULL
P        3.31637584       2.45709468       2.23805446       0.00000000 NULL
P        1.31860943      -0.10261475       7.10407411       0.00000000 NULL
P       -0.51653562       1.21755967       7.10407411       0.00000000 NULL
10
Lattice="5.7804266609927595 -0.7664621362875867 -0.09010298612444677 -2.564549113856095 5.236781877460465 -0.0901029861244465 -1.3857047633887722 -1.926237323535401 8.202812887136256" Properties=species:S:1:pos:R:3:initial_magmoms:R:1:castep_labels:S:1 n_minim_iter=25 pbc="T T T"
P        2.37638590      -0.50326955       5.31561815       0.00000000 NULL
P       -1.23271511       2.09306082       5.31561815       0.00000000 NULL
P       -0.76029724       0.88850191       1.25981720       0.00000000 NULL
P        1.08412965      -0.43834972       1.25981720       0.00000000 NULL
P       -0.72572232       2.87220086       0.42264268       0.00000000 NULL
P        2.95389967       0.22513881       0.42264268       0.00000000 NULL
P        1.24827909       3.85942147       2.24191241       0.00000000 NULL
P        3.26226803       2.41058958       2.24191241       0.00000000 NULL
P        1.30843225      -0.12123146       7.12729902       0.00000000 NULL
P       -0.53095050       1.20199150       7.12729902       0.00000000 NULL
10
Lattice="5.784459370684462 -0.7801334965344384 -0.09351478107742942 -2.5787932354434657 5.236258581501236 -0.09351478107742917 -1.3871314064685676 -1.9282204683006283 8.226520697867352" Properties=species:S:1:pos:R:3:initial_magmoms:R:1:castep_labels:S:1 n_minim_iter=26 pbc="T T T"
P        2.37542525      -0.51560020       5.32793000       0.00000000 NULL
P       -1.24410048       2.08822955       5.32793000       0.00000000 NULL
P       -0.76226714       0.88537583       1.26506443       0.00000000 NULL
P        1.08179210      -0.44121132       1.26506443       0.00000000 NULL
P       -0.73185948       2.86930560       0.42002610       0.00000000 NULL
P        2.95310592       0.21839958       0.42002610       0.00000000 NULL
P        1.24196131       3.84517265       2.24378466       0.00000000 NULL
P        3.25076730       2.40006929       2.24378466       0.00000000 NULL
P        1.30491409      -0.13025903       7.14343069       0.00000000 NULL
P       -0.53839104       1.19578562       7.14343069       0.00000000 NULL
10
Lattice="5.782506703353491 -0.7947396006612091 -0.09657295763514032 -2.592020573756262 5.229763297933419 -0.09657295763514007 -1.3860792720983026 -1.9267579197499383 8.246517932785892" Properties=species:S:1:pos:R:3:initial_magmoms:R:1:castep_labels:S:1 n_minim_iter=27 pbc="T T T"
P        2.37235439      -0.52806275       5.33824593       0.00000000 NULL
P       -1.25493997       2.08135562       5.33824593       0.00000000 NULL
P       -0.76345108       0.88101697       1.27024034       0.00000000 NULL
P        1.07803585      -0.44371970       1.27024034       0.00000000 NULL
P       -0.73768921       2.86284334       0.41708221       0.00000000 NULL
P        2.94883254       0.21081772       0.41708221       0.00000000 NULL
P        1.23408212       3.82485024       2.24526595       0.00000000 NULL
P        3.23400459       2.38613755       2.24526595       0.00000000 NULL
P        1.30055538      -0.13900396       7.15636952       0.00000000 NULL
P       -0.54529636       1.18887268       7.15636952       0.00000000 NULL
10
Lattice="5.763344345532938 -0.8970427667505412 -0.11898353665945638 -2.682922551269952 5.179068483275064 -0.1189835366594561 -1.3788239728018032 -1.9166724898174037 8.387417353995648" Properties=species:S:1:pos:R:3:initial_magmoms:R:1:castep_labels:S:1 n_minim_iter=28 pbc="T T T"
P        2.34787573      -0.61750121       5.41068588       0.00000000 NULL
P       -1.33195450       2.02971065       5.41068588       0.00000000 NULL
P       -0.77054221       0.84848480       1.30791283       0.00000000 NULL
P        1.04944640      -0.46078632       1.30791283       0.00000000 NULL
P       -0.77642738       2.81403117       0.39415002       0.00000000 NULL
P        2.91486989       0.15857010       0.39415002       0.00000000 NULL
P        1.17977665       3.67456986       2.25508889       0.00000000 NULL
P        3.10878857       2.28686910       2.25508889       0.00000000 NULL
P        1.26780473      -0.20235637       7.24545058       0.00000000 NULL
P       -0.59494844       1.13767890       7.24545058       0.00000000 NULL
10
Lattice="5.815673430037596 -0.9619008797953335 -0.16366404288854802 -2.7610529018329673 5.20806083112285 -0.16366404288854772 -1.4392473410270763 -2.0006656679923926 8.56935373267269" Properties=species:S:1:pos:R:3:initial_magmoms:R:1:castep_labels:S:1 n_minim_iter=29 pbc="T T T"
P        2.32901707      -0.72832955       5.49344284       0.00000000 NULL
P       -1.43103583       1.97659324       5.49344284       0.00000000 NULL
P       -0.78325834       0.81945777       1.35106408       0.00000000 NULL
P        1.02596864      -0.48207160       1.35106408       0.00000000 NULL
P       -0.78838993       2.81146780       0.34860573       0.00000000 NULL
P        2.91624297       0.14641329       0.34860573       0.00000000 NULL
P        1.17859056       3.58300197       2.24769085       0.00000000 NULL
P        3.02234934       2.25663097       2.24769085       0.00000000 NULL
P        1.22809402      -0.29232460       7.34103792       0.00000000 NULL
P       -0.66762230       1.07142383       7.34103792       0.00000000 NULL
10
Lattice="5.711366255638162 -0.9612490639199929 -0.1441686983684371 -2.727270934744211 5.109373495589138 -0.14416869836843685 -1.381253593106916 -1.9200498508811579 8.414707016331173" Properties=species:S:1:pos:R:3:initial_magmoms:R:1:castep_labels:S:1 n_minim_iter=30 pbc="T T T"
P        2.30429389      -0.70121583       5.41136498       0.00000000 NULL
P       -1.39746845       1.96177365       5.41136498       0.00000000 NULL
P       -0.76858275       0.80978175       1.33370695       0.00000000 NULL
P        1.01212869      -0.47123398       1.33370695       0.00000000 NULL
P       -0.77621053       2.75667408       0.35128212       0.00000000 NULL
P        2.86042017       0.14053929       0.35128212       0.00000000 NULL
P        1.15897140       3.50896096       2.23532258       0.00000000 NULL
P        2.95838820       2.21448888       2.23532258       0.00000000 NULL
P        1.23066628      -0.25889158       7.22267972       0.00000000 NULL
P       -0.63674199       1.08449249       7.22267972       0.00000000 NULL
10
Lattice="5.7739916261640705 -0.9778162558966608 -0.15934376461585859 -2.7628898810307283 5.163481716304083 -0.1593437646158583 -1.415609219033379 -1.9678068411733292 8.497749405297313" Properties=species:S:1:pos:R:3:initial_magmoms:R:1:castep_labels:S:1 n_minim_iter=31 pbc="T T T"
P        2.31587074      -0.73246214       5.45173935       0.00000000 NULL
P       -1.43077417       1.96281514       5.45173935       0.00000000 NULL
P       -0.78108019       0.81341318       1.34508108       0.00000000 NULL
P        1.01954519      -0.48192832       1.34508108       0.00000000 NULL
P       -0.78692155       2.78307236       0.34324835       0.00000000 NULL
P        2.88885414       0.13877728       0.34324835       0.00000000 NULL
P        1.16200522       3.53074931       2.23649496       0.00000000 NULL
P        2.97808134       2.22429277       2.23649496       0.00000000 NULL
P        1.22533809      -0.28789530       7.27850426       0.00000000 NULL
P       -0.66254661       1.07021919       7.27850426       0.00000000 NULL
