9
Lattice="4.513559999999999 0.0 0.0 0.0 7.270670000000002 1.2720539442792658e-15 0.0 -3.635335000000002 6.296584922533405" Properties=species:S:1:pos:R:3:initial_magmoms:R:1:castep_labels:S:1 n_minim_iter=1 pbc="T T T"
P        1.38807136       2.29143308       0.04207000       0.00000000 NULL
P        4.39711136       6.08852013       1.96340363       0.00000000 NULL
P        2.89259136       2.52605287       4.29111066       0.00000000 NULL
P        1.85740802       1.46347572       2.64405124       0.00000000 NULL
P        0.35288802       0.61378196       6.24196583       0.00000000 NULL
P        3.36192802      -2.07725659       3.70715215       0.00000000 NULL
P        2.63140367       6.08370331       0.03789914       0.00000000 NULL
P        1.12688367       4.19599709       5.24969142       0.00000000 NULL
P        4.13592367       0.62630569       1.00899373       0.00000000 NULL
9
Lattice="4.5108565285814155 0.0 0.0 0.0 7.267460580557321 -1.2460469563018443e-16 0.0 -3.6337302902786606 6.293805483764645" Properties=species:S:1:pos:R:3:initial_magmoms:R:1:castep_labels:S:1 n_minim_iter=2 pbc="T T T"
P        1.38733706       2.29057118       0.04221704       0.00000000 NULL
P        4.39457475       6.08561432       1.96258368       0.00000000 NULL
P        2.89095590       2.52500645       4.28900413       0.00000000 NULL
P        1.85631621       1.46283192       2.64287791       0.00000000 NULL
P        0.35269737       0.61351528       6.23921550       0.00000000 NULL
P        3.35993505      -2.07634612       3.70551692       0.00000000 NULL
P        2.62970972       6.08103178       0.03802176       0.00000000 NULL
P        1.12609088       4.19401723       5.24731650       0.00000000 NULL
P        4.13332857       0.62614294       1.00846659       0.00000000 NULL
9
Lattice="4.395674201659368 0.0 0.0 0.0 7.13191747954465 5.838786545748758e-16 0.0 -3.5659587397723254 6.176421714979951" Properties=species:S:1:pos:R:3:initial_magmoms:R:1:castep_labels:S:1 n_minim_iter=3 pbc="T T T"
P        1.35607568       2.25429527       0.04854325       0.00000000 NULL
P        4.28652515       5.96273051       1.92800473       0.00000000 NULL
P        2.82130041       2.48085150       4.19987312       0.00000000 NULL
P        1.80979290       1.43562556       2.59331035       0.00000000 NULL
P        0.34456817       0.60227367       6.12305413       0.00000000 NULL
P        3.27501764      -2.03789816       3.63647833       0.00000000 NULL
P        2.55752121       5.96818842       0.04332593       0.00000000 NULL
P        1.09229647       4.11030226       5.14693920       0.00000000 NULL
P        4.02274594       0.61938660       0.98615596       0.00000000 NULL
9
Lattice="4.352074486715463 0.0 0.0 0.0 7.151419426672186 1.7974723030633433e-16 0.0 -3.575709713336093 6.193310896615659" Properties=species:S:1:pos:R:3:initial_magmoms:R:1:castep_labels:S:1 n_minim_iter=4 pbc="T T T"
P        1.34752531       2.26754003       0.05585086       0.00000000 NULL
P        4.24890830       5.96928150       1.93582122       0.00000000 NULL
P        2.79821681       2.49030867       4.20163819       0.00000000 NULL
P        1.79237868       1.43901212       2.59955300       0.00000000 NULL
P        0.34168719       0.60492507       6.13975484       0.00000000 NULL
P        3.24307018      -2.04393613       3.64731334       0.00000000 NULL
P        2.52671676       5.98407327       0.05059337       0.00000000 NULL
P        1.07602527       4.11556800       5.15706217       0.00000000 NULL
P        3.97740826       0.62748893       0.98565473       0.00000000 NULL
9
Lattice="4.255547674714654 0.0 0.0 0.0 7.128971995575659 8.749420470039114e-16 0.0 -3.56448599778783 6.173870851036366" Properties=species:S:1:pos:R:3:initial_magmoms:R:1:castep_labels:S:1 n_minim_iter=5 pbc="T T T"
P        1.32856786       2.27480737       0.07131771       0.00000000 NULL
P        4.16559965       5.92980572       1.93438150       0.00000000 NULL
P        2.74708376       2.48884597       4.16817102       0.00000000 NULL
P        1.75396834       1.43314154       2.58912188       0.00000000 NULL
P        0.33545245       0.60567025       6.12044627       0.00000000 NULL
P        3.17248423      -2.03881073       3.63817292       0.00000000 NULL
P        2.45840177       5.96413640       0.06441620       0.00000000 NULL
P        1.03988587       4.09111808       5.13288491       0.00000000 NULL
P        3.87691766       0.63820458       0.97656912       0.00000000 NULL
9
Lattice="4.2181538839051465 0.0 0.0 0.0 7.147042994920251 2.4729363540798022e-15 0.0 -3.5735214974601273 6.189520795540555" Properties=species:S:1:pos:R:3:initial_magmoms:R:1:castep_labels:S:1 n_minim_iter=6 pbc="T T T"
P        1.33699410       2.30133313       0.09705713       0.00000000 NULL
P        4.14909669       5.91232284       1.94448377       0.00000000 NULL
P        2.74304539       2.50690958       4.14797927       0.00000000 NULL
P        1.74025981       1.43313288       2.58944217       0.00000000 NULL
P        0.33420851       0.61443271       6.13592858       0.00000000 NULL
P        3.14631110      -2.04756453       3.65367022       0.00000000 NULL
P        2.41499547       5.97553368       0.08383179       0.00000000 NULL
P        1.00894418       4.08667605       5.13304746       0.00000000 NULL
P        3.82104677       0.65835582       0.97264093       0.00000000 NULL
9
Lattice="4.193542923005914 0.0 0.0 0.0 7.002377528104602 3.9326955534108276e-16 0.0 -3.501188764052301 6.064236826227869" Properties=species:S:1:pos:R:3:initial_magmoms:R:1:castep_labels:S:1 n_minim_iter=7 pbc="T T T"
P        1.33783352       2.26038599       0.10496611       0.00000000 NULL
P        4.13352880       5.78128156       1.90506803       0.00000000 NULL
P        2.73568116       2.46189978       4.05420207       0.00000000 NULL
P        1.73095853       1.40232238       2.53341350       0.00000000 NULL
P        0.33311089       0.60602747       6.01197627       0.00000000 NULL
P        3.12880617      -2.00834880       3.58308327       0.00000000 NULL
P        2.39141261       5.85313821       0.08579544       0.00000000 NULL
P        0.99356497       4.00150774       5.02606806       0.00000000 NULL
P        3.78926025       0.64892138       0.95237272       0.00000000 NULL
9
Lattice="4.2345925100590085 0.0 0.0 0.0 7.051335582765114 5.724884508176769e-16 0.0 -3.525667791382557 6.10663574528374" Properties=species:S:1:pos:R:3:initial_magmoms:R:1:castep_labels:S:1 n_minim_iter=8 pbc="T T T"
P        1.35522881       2.27873996       0.11000409       0.00000000 NULL
P        4.17829048       5.81669961       1.91844404       0.00000000 NULL
P        2.76675964       2.48156485       4.07818700       0.00000000 NULL
P        1.74766032       1.41092829       2.54917102       0.00000000 NULL
P        0.33612948       0.61255714       6.05394937       0.00000000 NULL
P        3.15919116      -2.02348438       3.61015049       0.00000000 NULL
P        2.41076417       5.89324300       0.08858350       0.00000000 NULL
P        0.99923333       4.02799886       5.05940579       0.00000000 NULL
P        3.82229500       0.65576256       0.95864584       0.00000000 NULL
9
Lattice="4.244942202479454 0.0 0.0 0.0 7.033041619595116 1.2798541934797145e-16 0.0 -3.5165208097975578 6.090792708442626" Properties=species:S:1:pos:R:3:initial_magmoms:R:1:castep_labels:S:1 n_minim_iter=9 pbc="T T T"
P        1.36215386       2.27485071       0.11347400       0.00000000 NULL
P        4.19211533       5.79734525       1.91334090       0.00000000 NULL
P        2.77713459       2.47736752       4.06397721       0.00000000 NULL
P        1.75197347       1.40640287       2.54093523       0.00000000 NULL
P        0.33699274       0.61280527       6.03830510       0.00000000 NULL
P        3.16695420      -2.01920709       3.60234448       0.00000000 NULL
P        2.41300179       5.87747353       0.08966353       0.00000000 NULL
P        0.99802106       4.01665430       5.04520902       0.00000000 NULL
P        3.82798252       0.65543564       0.95591955       0.00000000 NULL
9
Lattice="4.2528363283299 0.0 0.0 0.0 7.022180063901489 1.0328249994014905e-16 0.0 -3.511090031950744 6.081386325287324" Properties=species:S:1:pos:R:3:initial_magmoms:R:1:castep_labels:S:1 n_minim_iter=10 pbc="T T T"
P        1.36711361       2.27264626       0.11577875       0.00000000 NULL
P        4.20233783       5.78558994       1.91027941       0.00000000 NULL
P        2.78472572       2.47503494       4.05532755       0.00000000 NULL
P        1.75523165       1.40364545       2.53591510       0.00000000 NULL
P        0.33761954       0.61310075       6.02902079       0.00000000 NULL
P        3.17284376      -2.01674516       3.59783615       0.00000000 NULL
P        2.41506241       5.86811613       0.09034454       0.00000000 NULL
P        0.99745030       4.00988168       5.03676477       0.00000000 NULL
P        3.83267452       0.65527333       0.95427641       0.00000000 NULL
9
Lattice="4.289897041183225 0.0 0.0 0.0 6.97271669983023 1.365667377501061e-15 0.0 -3.4863583499151156 6.038549795444975" Properties=species:S:1:pos:R:3:initial_magmoms:R:1:castep_labels:S:1 n_minim_iter=11 pbc="T T T"
P        1.39019435       2.26244250       0.12611507       0.00000000 NULL
P        4.25012571       5.73227694       1.89627454       0.00000000 NULL
P        2.82016003       2.46435665       4.01615958       0.00000000 NULL
P        1.77046435       1.39110001       2.51306568       0.00000000 NULL
P        0.34049867       0.61442997       5.98674430       0.00000000 NULL
P        3.20043003      -2.00552894       3.57728900       0.00000000 NULL
P        2.42500389       5.82564836       0.09323085       0.00000000 NULL
P        0.99503821       3.97915258       4.99854345       0.00000000 NULL
P        3.85496957       0.65427514       0.94677489       0.00000000 NULL
9
Lattice="4.3314325587710405 0.0 0.0 0.0 6.921394867392589 8.08175232054739e-16 0.0 -3.4606974336962946 5.99410378478521" Properties=species:S:1:pos:R:3:initial_magmoms:R:1:castep_labels:S:1 n_minim_iter=12 pbc="T T T"
P        1.41518507       2.25116937       0.13613054       0.00000000 NULL
P        4.30280677       5.67791802       1.88150400       0.00000000 NULL
P        2.85899592       2.45300594       3.97646865       0.00000000 NULL
P        1.78725092       1.37814328       2.48944834       0.00000000 NULL
P        0.34344007       0.61570063       5.94288611       0.00000000 NULL
P        3.23106177      -1.99384288       3.55587252       0.00000000 NULL
P        2.43730794       5.78224855       0.09528674       0.00000000 NULL
P        0.99349709       3.94775019       4.95993016       0.00000000 NULL
P        3.88111879       0.65209459       0.93888628       0.00000000 NULL
9
Lattice="4.375869446427474 0.0 0.0 0.0 6.86889137251919 3.7069899427971455e-16 0.0 -3.4344456862595947 5.948634424437381" Properties=species:S:1:pos:R:3:initial_magmoms:R:1:castep_labels:S:1 n_minim_iter=13 pbc="T T T"
P        1.44160068       2.23919873       0.14582337       0.00000000 NULL
P        4.35884697       5.62300560       1.86629071       0.00000000 NULL
P        2.90022383       2.44113374       3.93651975       0.00000000 NULL
P        1.80493971       1.36495589       2.46542461       0.00000000 NULL
P        0.34631656       0.61684774       5.89800800       0.00000000 NULL
P        3.26356286      -1.98180260       3.53383565       0.00000000 NULL
P        2.45106261       5.73851212       0.09661986       0.00000000 NULL
P        0.99243946       3.91596040       4.92138675       0.00000000 NULL
P        3.90968576       0.64886556       0.93062722       0.00000000 NULL
9
Lattice="4.412445533514729 0.0 0.0 0.0 6.8274547082960355 1.2692985346253962e-15 0.0 -3.413727354148018 5.912749220572043" Properties=species:S:1:pos:R:3:initial_magmoms:R:1:castep_labels:S:1 n_minim_iter=14 pbc="T T T"
P        1.46333311       2.22962082       0.15324820       0.00000000 NULL
P        4.40496347       5.57992781       1.85428358       0.00000000 NULL
P        2.93414829       2.43163446       3.90521685       0.00000000 NULL
P        1.81928510       1.35457114       2.44654837       0.00000000 NULL
P        0.34846992       0.61766908       5.86256747       0.00000000 NULL
P        3.29010028      -1.97223920       3.51638201       0.00000000 NULL
P        2.46260870       5.70451322       0.09717058       0.00000000 NULL
P        0.99179352       3.89104624       4.89166749       0.00000000 NULL
P        3.93342388       0.64562361       0.92391056       0.00000000 NULL
9
Lattice="4.58677770886539 0.0 0.0 0.0 6.642653590609459 1.1238406639909321e-15 0.0 -3.32132679530473 5.75270675800771" Properties=species:S:1:pos:R:3:initial_magmoms:R:1:castep_labels:S:1 n_minim_iter=15 pbc="T T T"
P        1.56876583       2.18706443       0.18618475       0.00000000 NULL
P        4.62661764       5.38788098       1.80096040       0.00000000 NULL
P        3.09769174       2.38903597       3.76556102       0.00000000 NULL
P        1.88673004       1.30815866       2.36262710       0.00000000 NULL
P        0.35780413       0.62115270       5.70429126       0.00000000 NULL
P        3.41565594      -1.92931037       3.43849457       0.00000000 NULL
P        2.51672034       5.55488178       0.09793358       0.00000000 NULL
P        0.98779444       3.78040006       4.76170137       0.00000000 NULL
P        4.04564624       0.62869954       0.89307123       0.00000000 NULL
9
Lattice="4.705666331711738 0.0 0.0 0.0 6.322870887706664 6.549985528867009e-16 0.0 -3.161435443853332 5.4757668136030375" Properties=species:S:1:pos:R:3:initial_magmoms:R:1:castep_labels:S:1 n_minim_iter=16 pbc="T T T"
P        1.67080389       2.10477843       0.21554728       0.00000000 NULL
P        4.80791478       5.08381257       1.71501740       0.00000000 NULL
P        3.23935934       2.29571628       3.54520159       0.00000000 NULL
P        1.92669295       1.23577115       2.23374020       0.00000000 NULL
P        0.35813750       0.60907442       5.42910537       0.00000000 NULL
P        3.49524839      -1.84484463       3.28868750       0.00000000 NULL
P        2.52951836       5.30220896       0.08664537       0.00000000 NULL
P        0.96096292       3.59672963       4.54852443       0.00000000 NULL
P        4.09807380       0.58536868       0.84059647       0.00000000 NULL
9
Lattice="4.831413197693279 0.0 0.0 0.0 6.51228077969316 7.638003477649856e-16 0.0 -3.25614038984658 5.63980059179141" Properties=species:S:1:pos:R:3:initial_magmoms:R:1:castep_labels:S:1 n_minim_iter=17 pbc="T T T"
P        1.72485976       2.17306128       0.22509687       0.00000000 NULL
P        4.94580189       5.23081086       1.76937727       0.00000000 NULL
P        3.33533082       2.36455001       3.64532589       0.00000000 NULL
P        1.97544085       1.27047012       2.30143306       0.00000000 NULL
P        0.36496979       0.62780616       5.58934290       0.00000000 NULL
P        3.58591192      -1.89827531       3.38882466       0.00000000 NULL
P        2.59044336       5.46245274       0.08866715       0.00000000 NULL
P        0.97997230       3.70426673       4.68628871       0.00000000 NULL
P        4.20091443       0.60170267       0.86484417       0.00000000 NULL
9
Lattice="4.786251286675569 0.0 0.0 0.0 6.425006396838203 1.8217649518692258e-15 0.0 -3.2125031984191024 5.564218759139408" Properties=species:S:1:pos:R:3:initial_magmoms:R:1:castep_labels:S:1 n_minim_iter=18 pbc="T T T"
P        1.71179737       2.14577037       0.22351050       0.00000000 NULL
P        4.90263156       5.15855575       1.74653585       0.00000000 NULL
P        3.30721447       2.33318443       3.59417185       0.00000000 NULL
P        1.95681308       1.25364200       2.27058040       0.00000000 NULL
P        0.36139598       0.61930221       5.51461382       0.00000000 NULL
P        3.55223017      -1.87294325       3.34324274       0.00000000 NULL
P        2.56333043       5.39139866       0.08494594       0.00000000 NULL
P        0.96791334       3.65574204       4.62661467       0.00000000 NULL
P        4.15874753       0.59036985       0.85265759       0.00000000 NULL
9
Lattice="4.7854897620273436 0.0 0.0 0.0 6.4107423532653725 6.56190893236817e-16 0.0 -3.2053711766326862 5.5518657350446485" Properties=species:S:1:pos:R:3:initial_magmoms:R:1:castep_labels:S:1 n_minim_iter=19 pbc="T T T"
P        1.71579463       2.14352732       0.22460925       0.00000000 NULL
P        4.90612113       5.14446170       1.74404394       0.00000000 NULL
P        3.31095788       2.32812547       3.58321200       0.00000000 NULL
P        1.95573582       1.25048181       2.26579813       0.00000000 NULL
P        0.36057256       0.61789185       5.50191513       0.00000000 NULL
P        3.55089907      -1.86837270       3.33601765       0.00000000 NULL
P        2.55941890       5.38121960       0.08273317       0.00000000 NULL
P        0.96425564       3.64848384       4.61890574       0.00000000 NULL
P        4.15458215       0.58641104       0.85022627       0.00000000 NULL
9
Lattice="4.791462331135465 0.0 0.0 0.0 6.404994482945738 8.769901509987786e-17 0.0 -3.2024972414728685 5.546887933330186" Properties=species:S:1:pos:R:3:initial_magmoms:R:1:castep_labels:S:1 n_minim_iter=20 pbc="T T T"
P        1.72338453       2.14485682       0.22633480       0.00000000 NULL
P        4.91769275       5.13655470       1.74433254       0.00000000 NULL
P        3.32053864       2.32608116       3.57622003       0.00000000 NULL
P        1.95712488       1.24884797       2.26420084       0.00000000 NULL
P        0.35997077       0.61721813       5.49632102       0.00000000 NULL
P        3.55427899      -1.86606514       3.33325345       0.00000000 NULL
P        2.55821652       5.37858964       0.08009683       0.00000000 NULL
P        0.96106241       3.64633409       4.61794630       0.00000000 NULL
P        4.15537063       0.58256894       0.84884425       0.00000000 NULL
9
Lattice="4.843074861585502 0.0 0.0 0.0 6.337423235735604 3.7255587697528807e-16 0.0 -3.168711617867802 5.4883695166808115" Properties=species:S:1:pos:R:3:initial_magmoms:R:1:castep_labels:S:1 n_minim_iter=21 pbc="T T T"
P        1.79819448       2.15573722       0.24266702       0.00000000 NULL
P        5.02691106       5.04939913       1.74558914       0.00000000 NULL
P        3.41255277       2.30099944       3.50011281       0.00000000 NULL
P        1.96719144       1.23117405       2.24566461       0.00000000 NULL
P        0.35283315       0.60832231       5.43176466       0.00000000 NULL
P        3.58154973      -1.83949541       3.29930921       0.00000000 NULL
P        2.54054212       5.34480553       0.05102435       0.00000000 NULL
P        0.92618384       3.62083240       4.60322465       0.00000000 NULL
P        4.15490041       0.54049787       0.83411997       0.00000000 NULL
