9
Lattice="4.03474 -9.344615344262805e-16 0.0 -2.017369999999999 3.494187337665226 0.0 0.0 0.0 14.72057" Properties=species:S:1:pos:R:3:initial_magmoms:R:1:castep_labels:S:1 n_minim_iter=1 pbc="T T T"
P        2.06784924       1.85863057       6.77179194       0.00000000 NULL
P        2.59306668       0.77406208      11.67864861       0.00000000 NULL
P        1.39119409       0.86149468       1.86493527       0.00000000 NULL
P        0.24776511       1.43752230      12.58394404       0.00000000 NULL
P       -0.89632172       2.56085530       2.77023071       0.00000000 NULL
P        0.64855661       2.98999706       7.67708737       0.00000000 NULL
P       -0.78766154       2.80398331       9.44220197       0.00000000 NULL
P        0.80478156       2.77433058      14.34905864       0.00000000 NULL
P       -0.01712001       1.41006077       4.53534530       0.00000000 NULL
9
Lattice="4.030919321293039 4.451785641708005e-16 0.0 -2.01545966064652 3.490878532845299 0.0 0.0 0.0 14.70641128124833" Properties=species:S:1:pos:R:3:initial_magmoms:R:1:castep_labels:S:1 n_minim_iter=2 pbc="T T T"
P        2.06603402       1.85673361       6.76522598       0.00000000 NULL
P        2.59042113       0.77327377      11.66736307       0.00000000 NULL
P        1.38992383       0.86087113       1.86308888       0.00000000 NULL
P        0.24776642       1.43623973      12.57195141       0.00000000 NULL
P       -0.89552277       2.55818665       2.76767722       0.00000000 NULL
P        0.64775636       2.98733068       7.66981431       0.00000000 NULL
P       -0.78686590       2.80127968       9.43306178       0.00000000 NULL
P        0.80395266       2.77168455      14.33519887       0.00000000 NULL
P       -0.01708675       1.40879283       4.53092469       0.00000000 NULL
9
Lattice="3.826701456330175 -1.1213767928058894e-16 -1.0101554074853274e-57 -1.9133507281650874 3.314020673880839 -1.3700470026806694e-41 1.2061002812219797e-56 -2.588884158718676e-40 13.9456144235325" Properties=species:S:1:pos:R:3:initial_magmoms:R:1:castep_labels:S:1 n_minim_iter=3 pbc="T T T"
P        1.96906290       1.75536962       6.41237320       0.00000000 NULL
P        2.44901397       0.73107737      11.06091134       0.00000000 NULL
P        1.32197532       0.82757367       1.76383505       0.00000000 NULL
P        0.24779494       1.36767297      11.92749569       0.00000000 NULL
P       -0.85280866       2.41558747       2.63041940       0.00000000 NULL
P        0.60501372       2.84478090       7.27895755       0.00000000 NULL
P       -0.74442410       2.65679045       8.94201890       0.00000000 NULL
P        0.75970935       2.63031563      13.59055704       0.00000000 NULL
P       -0.01528524       1.34093526       4.29348076       0.00000000 NULL
9
Lattice="3.884307235794754 -7.165928951543908e-16 -8.423276607287398e-43 -1.9421536178973766 3.3639087423019687 -5.529550215555695e-41 -3.0696872773722746e-42 -8.193743387414885e-40 13.963251900521465" Properties=species:S:1:pos:R:3:initial_magmoms:R:1:castep_labels:S:1 n_minim_iter=4 pbc="T T T"
P        2.00920088       1.77437275       6.41374694       0.00000000 NULL
P        2.47420506       0.73670337      11.06816424       0.00000000 NULL
P        1.34305492       0.85283262       1.75932964       0.00000000 NULL
P        0.26370777       1.39174545      11.94875063       0.00000000 NULL
P       -0.86872058       2.43965839       2.63991603       0.00000000 NULL
P        0.60501282       2.89641364       7.29433333       0.00000000 NULL
P       -0.75695932       2.69526272       8.95389451       0.00000000 NULL
P        0.77049203       2.67182338      13.60831181       0.00000000 NULL
P       -0.01353271       1.36073137       4.29947721       0.00000000 NULL
9
Lattice="3.8676277475499905 -6.4939747041914696e-18 2.027604638163493e-41 -1.9338138737749955 3.349463881759879 -4.940102457074506e-41 7.282728837928025e-41 -1.0520792440911132e-39 13.81460953297409" Properties=species:S:1:pos:R:3:initial_magmoms:R:1:castep_labels:S:1 n_minim_iter=5 pbc="T T T"
P        2.00784083       1.76155399       6.34151927       0.00000000 NULL
P        2.45544397       0.72984572      10.94638911       0.00000000 NULL
P        1.33815683       0.85806416       1.73664942       0.00000000 NULL
P        0.27129170       1.38800294      11.82540919       0.00000000 NULL
P       -0.86741391       2.42051691       2.61566950       0.00000000 NULL
P        0.59612222       2.89040791       7.22053934       0.00000000 NULL
P       -0.75443567       2.68222747       8.85867369       0.00000000 NULL
P        0.76628110       2.66171060      13.46354353       0.00000000 NULL
P       -0.01184542       1.35498968       4.25380384       0.00000000 NULL
9
Lattice="3.864814407840713 -3.1474209716044077e-16 1.1905146110196865e-40 -1.9324072039203566 3.3470274581021693 8.708323504600259e-41 4.265962204348288e-40 -2.38680377862093e-40 13.621887547191353" Properties=species:S:1:pos:R:3:initial_magmoms:R:1:castep_labels:S:1 n_minim_iter=6 pbc="T T T"
P        2.02100334       1.75014257       6.24492301       0.00000000 NULL
P        2.43757347       0.72171593      10.78555219       0.00000000 NULL
P        1.33864481       0.87516894       1.70429383       0.00000000 NULL
P        0.28801918       1.39066280      11.66722287       0.00000000 NULL
P       -0.87206748       2.40226413       2.58596450       0.00000000 NULL
P        0.58404830       2.90112798       7.12659368       0.00000000 NULL
P       -0.75638989       2.67735956       8.73643311       0.00000000 NULL
P        0.76444914       2.66340053      13.27706229       0.00000000 NULL
P       -0.00805925       1.35329481       4.19580393       0.00000000 NULL
9
Lattice="3.8454333328982937 -3.6345074579569592e-16 9.751168398298906e-40 -1.9227166664491468 3.330242954849384 1.6629219294252128e-39 3.456084369657102e-39 8.804066828176755e-39 13.156114021805442" Properties=species:S:1:pos:R:3:initial_magmoms:R:1:castep_labels:S:1 n_minim_iter=7 pbc="T T T"
P        2.06124907       1.70805202       6.00469202       0.00000000 NULL
P        2.37130858       0.69112288      10.39006336       0.00000000 NULL
P        1.33559236       0.93106804       1.61932068       0.00000000 NULL
P        0.34220746       1.39090138      11.28460977       0.00000000 NULL
P       -0.88926446       2.33843191       2.51386709       0.00000000 NULL
P        0.54705701       2.93115261       6.89923843       0.00000000 NULL
P       -0.76665571       2.65304350       8.44808169       0.00000000 NULL
P        0.75821426       2.66766452      12.83345303       0.00000000 NULL
P        0.00844145       1.33977788       4.06271035       0.00000000 NULL
9
Lattice="3.918233318613439 1.2531541294965771e-16 -6.849107361853364e-39 -1.95911665930672 3.393289591873844 -1.4013966370395935e-38 -2.3413253176277353e-38 -6.865845103308323e-38 13.811895328351598" Properties=species:S:1:pos:R:3:initial_magmoms:R:1:castep_labels:S:1 n_minim_iter=8 pbc="T T T"
P        2.12214809       1.72940988       6.29058934       0.00000000 NULL
P        2.39575551       0.69075049      10.89455444       0.00000000 NULL
P        1.35944639       0.97312921       1.68662423       0.00000000 NULL
P        0.36691460       1.40997986      11.84327718       0.00000000 NULL
P       -0.92149558       2.37054229       2.63534696       0.00000000 NULL
P        0.55458098       3.00605702       7.23931207       0.00000000 NULL
P       -0.79814842       2.69814073       8.88642581       0.00000000 NULL
P        0.77661597       2.73543603      13.49039092       0.00000000 NULL
P        0.02153246       1.35300242       4.28246070       0.00000000 NULL
9
Lattice="3.804801059703443 -8.818626785371867e-16 -3.509507264186498e-38 -1.902400529851721 3.2950543740491343 -7.058418199864558e-38 -1.2289976218784923e-37 -3.5535007462755644e-37 13.470703908994448" Properties=species:S:1:pos:R:3:initial_magmoms:R:1:castep_labels:S:1 n_minim_iter=9 pbc="T T T"
P        2.06401294       1.67742599       6.13358270       0.00000000 NULL
P        2.32308759       0.66885373      10.62381734       0.00000000 NULL
P        1.32010107       0.94877463       1.64334806       0.00000000 NULL
P        0.35943899       1.36967212      11.55151278       0.00000000 NULL
P       -0.89594917       2.29893502       2.57104351       0.00000000 NULL
P        0.53651019       2.92150160       7.06127815       0.00000000 NULL
P       -0.77529264       2.61980575       8.66772206       0.00000000 NULL
P        0.75406413       2.65657462      13.15795670       0.00000000 NULL
P        0.02122852       1.31372837       4.17748742       0.00000000 NULL
9
Lattice="3.796733476499811 -6.260809764164876e-16 -2.8726942091279585e-38 -1.8983667382499052 3.288067642047644 -5.797806822199396e-38 -9.996131669193954e-38 -2.887027634840139e-37 13.484994136514135" Properties=species:S:1:pos:R:3:initial_magmoms:R:1:castep_labels:S:1 n_minim_iter=10 pbc="T T T"
P        2.06357357       1.67249082       6.13682285       0.00000000 NULL
P        2.31499950       0.66471510      10.63182090       0.00000000 NULL
P        1.31652716       0.95086172       1.64182480       0.00000000 NULL
P        0.36157104       1.36660642      11.56437149       0.00000000 NULL
P       -0.89563638       2.29163472       2.57437540       0.00000000 NULL
P        0.53406534       2.91789413       7.06937344       0.00000000 NULL
P       -0.77575349       2.61386123       8.67957926       0.00000000 NULL
P        0.75318024       2.65295926      13.17457731       0.00000000 NULL
P        0.02257326       1.30931479       4.18458122       0.00000000 NULL
9
Lattice="3.780296223252067 3.2211267389950643e-16 -7.922719743381955e-39 -1.8901481116260341 3.2738325631666583 -1.6274117808029637e-38 -2.520970026932595e-38 -7.34812334348291e-38 13.541528474052415" Properties=species:S:1:pos:R:3:initial_magmoms:R:1:castep_labels:S:1 n_minim_iter=11 pbc="T T T"
P        2.06483621       1.66193938       6.15363464       0.00000000 NULL
P        2.29701174       0.65466226      10.66747746       0.00000000 NULL
P        1.30859639       0.95723091       1.63979181       0.00000000 NULL
P        0.36724134       1.36039131      11.61460337       0.00000000 NULL
P       -0.89563534       2.27559657       2.58691772       0.00000000 NULL
P        0.52839401       2.91167723       7.10076054       0.00000000 NULL
P       -0.77787549       2.60171297       8.72313406       0.00000000 NULL
P        0.75193916       2.64663601      13.23697688       0.00000000 NULL
P        0.02593633       1.29931614       4.20929123       0.00000000 NULL
9
Lattice="3.7227031670925115 -6.684886541246962e-16 7.587871038996755e-39 -1.8613515835462555 3.2239555134508993 1.473349180306268e-38 3.10786784309871e-38 8.885654118411659e-38 13.705327654570752" Properties=species:S:1:pos:R:3:initial_magmoms:R:1:castep_labels:S:1 n_minim_iter=12 pbc="T T T"
P        2.06398204       1.62857828       6.19788824       0.00000000 NULL
P        2.23975073       0.62220549      10.76633079       0.00000000 NULL
P        1.28032198       0.97317173       1.62944569       0.00000000 NULL
P        0.38148605       1.34012305      11.76208525       0.00000000 NULL
P       -0.89151399       2.22351737       2.62520015       0.00000000 NULL
P        0.51002795       2.88427059       7.19364270       0.00000000 NULL
P       -0.78207502       2.56101737       8.85183987       0.00000000 NULL
P        0.74759204       2.62074366      13.42028242       0.00000000 NULL
P        0.03448299       1.26614998       4.28339732       0.00000000 NULL
9
Lattice="3.7162002751506953 4.2425352702631826e-16 -1.709523086711536e-38 -1.8581001375753483 3.2183238438312203 -3.4692753367609484e-38 -6.023956935462319e-38 -1.7497157119479963e-37 13.89755941435899" Properties=species:S:1:pos:R:3:initial_magmoms:R:1:castep_labels:S:1 n_minim_iter=13 pbc="T T T"
P        2.07747076       1.62522057       6.26265534       0.00000000 NULL
P        2.22684707       0.60657110      10.89517514       0.00000000 NULL
P        1.26998259       0.98653216       1.63013553       0.00000000 NULL
P        0.38808904       1.34023439      11.93354831       0.00000000 NULL
P       -0.89146763       2.21211168       2.66850870       0.00000000 NULL
P        0.50337859       2.88430161       7.30102851       0.00000000 NULL
P       -0.78983476       2.55828538       8.99167384       0.00000000 NULL
P        0.75235738       2.62319811      13.62419365       0.00000000 NULL
P        0.03747738       1.25516418       4.35915404       0.00000000 NULL
9
Lattice="3.691330435297526 1.7383019919530313e-16 -3.3914965139746603e-38 -1.8456652176487633 3.1967859307303246 -6.823441563191222e-38 -1.2303634827907534e-37 -3.5648872822459014e-37 13.832611524429474" Properties=species:S:1:pos:R:3:initial_magmoms:R:1:castep_labels:S:1 n_minim_iter=14 pbc="T T T"
P        2.06645023       1.61430141       6.22975695       0.00000000 NULL
P        2.21046613       0.60003683      10.84062746       0.00000000 NULL
P        1.26007929       0.98244769       1.61888645       0.00000000 NULL
P        0.38663998       1.33200028      11.87889562       0.00000000 NULL
P       -0.88543912       2.19594575       2.65715460       0.00000000 NULL
P        0.49879915       2.86562582       7.26802511       0.00000000 NULL
P       -0.78580817       2.54168423       8.95216697       0.00000000 NULL
P        0.74840199       2.60647365      13.56303748       0.00000000 NULL
P        0.03740619       1.24541397       4.34129647       0.00000000 NULL
9
Lattice="3.6838763992511394 -5.929947324808232e-17 -2.731103656525796e-38 -1.84193819962557 3.190330546153429 -5.498066518899149e-38 -9.792569467157616e-38 -2.841467285578216e-37 13.84514357418259" Properties=species:S:1:pos:R:3:initial_magmoms:R:1:castep_labels:S:1 n_minim_iter=15 pbc="T T T"
P        2.06535428       1.61125646       6.23119093       0.00000000 NULL
P        2.20465009       0.59605304      10.84623879       0.00000000 NULL
P        1.25581023       0.98302104       1.61614307       0.00000000 NULL
P        0.38688481       1.32999664      11.89085200       0.00000000 NULL
P       -0.88356972       2.19028015       2.66075628       0.00000000 NULL
P        0.49668492       2.86038429       7.27580414       0.00000000 NULL
P       -0.78585631       2.53711381       8.96329314       0.00000000 NULL
P        0.74819497       2.60234516      13.57834100       0.00000000 NULL
P        0.03766134       1.24120211       4.34824529       0.00000000 NULL
9
Lattice="3.6818748027327066 1.8055022488021162e-16 -2.5015551019011864e-38 -1.8409374013663538 3.1885971127203394 -5.027735264650996e-38 -8.920527249363403e-38 -2.585219169705349e-37 13.850548816225187" Properties=species:S:1:pos:R:3:initial_magmoms:R:1:castep_labels:S:1 n_minim_iter=16 pbc="T T T"
P        2.06519981       1.61046900       6.23228558       0.00000000 NULL
P        2.20304457       0.59484711      10.84913519       0.00000000 NULL
P        1.25456783       0.98328099       1.61543598       0.00000000 NULL
P        0.38698119       1.32949791      11.89586741       0.00000000 NULL
P       -0.88304903       2.18871261       2.66216820       0.00000000 NULL
P        0.49606784       2.85898369       7.27901780       0.00000000 NULL
P       -0.78595338       2.53592162       8.96775739       0.00000000 NULL
P        0.74821184       2.60129189      13.58460700       0.00000000 NULL
P        0.03774154       1.23998070       4.35090779       0.00000000 NULL
9
Lattice="3.664395121612562 1.151455193268166e-16 -6.810063436890035e-39 -1.8321975608062815 3.173459264820243 -1.3809241908646376e-38 -1.997722180224479e-38 -5.856297410523962e-38 13.89746928122923" Properties=species:S:1:pos:R:3:initial_magmoms:R:1:castep_labels:S:1 n_minim_iter=17 pbc="T T T"
P        2.06381471       1.60363284       6.24164587       0.00000000 NULL
P        2.18907699       0.58432687      10.87413563       0.00000000 NULL
P        1.24370098       0.98549954       1.60915611       0.00000000 NULL
P        0.38777800       1.32516355      11.93942917       0.00000000 NULL
P       -0.87846126       2.17505189       2.67444965       0.00000000 NULL
P        0.49068327       2.84670308       7.30693941       0.00000000 NULL
P       -0.78679447       2.52552951       9.00662612       0.00000000 NULL
P        0.74837240       2.59207850      13.63911588       0.00000000 NULL
P        0.03842208       1.22931050       4.37413636       0.00000000 NULL
9
Lattice="3.6525401711215664 2.7983620407914237e-16 -4.3822560975652916e-39 -1.8262700855607839 3.163192576534433 -8.838014736147041e-39 -1.0654060206259302e-38 -3.135434006352096e-38 13.924861239856604" Properties=species:S:1:pos:R:3:initial_magmoms:R:1:castep_labels:S:1 n_minim_iter=18 pbc="T T T"
P        2.06284648       1.59925649       6.24587925       0.00000000 NULL
P        2.17984360       0.57708687      10.88749966       0.00000000 NULL
P        1.23612019       0.98684921       1.60425883       0.00000000 NULL
P        0.38811770       1.32239213      11.96510638       0.00000000 NULL
P       -0.87510375       2.16587672       2.68186556       0.00000000 NULL
P        0.48698606       2.83811629       7.32348597       0.00000000 NULL
P       -0.78743523       2.51861473       9.03030258       0.00000000 NULL
P        0.74863187       2.58582413      13.67192299       0.00000000 NULL
P        0.03880337       1.22194629       4.38868217       0.00000000 NULL
9
Lattice="3.5897657791843094 -3.777216980059042e-16 2.633666900190334e-39 -1.7948828895921547 3.108828358409648 5.198224895723604e-39 1.6451907248188862e-38 4.6483884161066326e-38 14.071150873742937" Properties=species:S:1:pos:R:3:initial_magmoms:R:1:castep_labels:S:1 n_minim_iter=19 pbc="T T T"
P        2.05905204       1.57719777       6.26550258       0.00000000 NULL
P        2.13125021       0.53703810      10.95588620       0.00000000 NULL
P        1.19434643       0.99459248       1.57511895       0.00000000 NULL
P        0.38967553       1.30870841      12.10255190       0.00000000 NULL
P       -0.85634592       2.11700525       2.72178465       0.00000000 NULL
P        0.46667040       2.79194305       7.41216827       0.00000000 NULL
P       -0.79197460       2.48270683       9.15942102       0.00000000 NULL
P        0.75119160       2.55334506      13.84980465       0.00000000 NULL
P        0.04078301       1.18160481       4.46903740       0.00000000 NULL
9
Lattice="3.536456601694958 -1.6689018228153055e-16 1.7729868208214372e-38 -1.7682283008474793 3.062661256449016 3.5364045780712113e-38 7.551664037063098e-38 2.1718219832894867e-37 13.887122613566223" Properties=species:S:1:pos:R:3:initial_magmoms:R:1:castep_labels:S:1 n_minim_iter=20 pbc="T T T"
P        2.08648882       1.57267821       6.10491385       0.00000000 NULL
P        2.08696318       0.46936983      10.73395473       0.00000000 NULL
P        1.13123291       1.02061321       1.47587298       0.00000000 NULL
P        0.39464916       1.31308767      11.95757955       0.00000000 NULL
P       -0.82838559       2.06434122       2.69949781       0.00000000 NULL
P        0.43373644       2.74789361       7.32853868       0.00000000 NULL
P       -0.81899458       2.46068851       9.10496652       0.00000000 NULL
P        0.77228776       2.54158711      13.73400739       0.00000000 NULL
P        0.04670683       1.12304688       4.47592565       0.00000000 NULL
9
Lattice="3.632295752643404 -3.4796373692130584e-16 -3.7277150218853643e-37 -1.8161478763217023 3.1456603958475027 -7.4576990746825596e-37 -1.4610071597149897e-36 -4.218063597958536e-36 14.910637029544302" Properties=species:S:1:pos:R:3:initial_magmoms:R:1:castep_labels:S:1 n_minim_iter=21 pbc="T T T"
P        2.15980785       1.62509897       6.53979943       0.00000000 NULL
P        2.14362095       0.46266244      11.51001177       0.00000000 NULL
P        1.14501484       1.05789897       1.56958708       0.00000000 NULL
P        0.41051905       1.36204436      12.83512879       0.00000000 NULL
P       -0.84184238       2.10911829       2.89470410       0.00000000 NULL
P        0.43132334       2.82015813       7.86491644       0.00000000 NULL
P       -0.86307709       2.52870134       9.79483901       0.00000000 NULL
P        0.80531028       2.62875641      14.76505135       0.00000000 NULL
P        0.05776682       1.13386303       4.82462666       0.00000000 NULL
9
Lattice="3.518901411209029 -5.339787910501856e-16 -6.464461569947646e-36 -1.7594507056045146 3.0474580155199273 -1.2929242075639965e-35 -2.650048886625534e-35 -7.650067930493881e-35 14.144769742873644" Properties=species:S:1:pos:R:3:initial_magmoms:R:1:castep_labels:S:1 n_minim_iter=22 pbc="T T T"
P        2.09535899       1.57445183       6.20325749       0.00000000 NULL
P        2.07528649       0.44559798      10.91818074       0.00000000 NULL
P        1.10770663       1.02740820       1.48833424       0.00000000 NULL
P        0.39920995       1.32208768      12.17390766       0.00000000 NULL
P       -0.81409416       2.04068821       2.74406116       0.00000000 NULL
P        0.41488421       2.73214013       7.45898441       0.00000000 NULL
P       -0.83734101       2.45045665       9.29433138       0.00000000 NULL
P        0.78137752       2.54738827      14.00925462       0.00000000 NULL
P        0.05596350       1.09707109       4.57940813       0.00000000 NULL
