4
Lattice="3.4929599999999987 5.4648224394352654e-17 -1.1257047487120915e-16 -0.3689827243888559 4.518840515386947 5.50046148983488e-16 -1.4294509231740613 -0.4102399832118452 5.38241900473302" Properties=species:S:1:pos:R:3:initial_magmoms:R:1:castep_labels:S:1 n_minim_iter=1 pbc="T T T"
P        3.02472776       1.71102836       0.11616121       0.00000000 NULL
P        1.84784552      -0.07780890       2.20626970       0.00000000 NULL
P        1.35001230       2.93965026       3.52975755       0.00000000 NULL
P        2.53301751       2.45075479       1.96288747       0.00000000 NULL
4
Lattice="3.493350400463361 -0.00016993935095360678 -0.0010172242574551806 -0.369243815226087 4.520458859495862 -0.0004317663326845976 -1.4311582056971013 -0.41095799881385603 5.385544588423239" Properties=species:S:1:pos:R:3:initial_magmoms:R:1:castep_labels:S:1 n_minim_iter=2 pbc="T T T"
P        3.02494633       1.71139982       0.11502610       0.00000000 NULL
P        1.84742971      -0.07802251       2.20659751       0.00000000 NULL
P        1.34879032       2.94005160       3.53113349       0.00000000 NULL
P        2.53279770       2.45132456       1.96279363       0.00000000 NULL
4
Lattice="3.513798382333381 -0.008878048248003808 -0.05523854601728201 -0.3826695364925913 4.605493990691083 -0.023660974266175035 -1.5220549937551524 -0.44952144784107284 5.551191439736778" Properties=species:S:1:pos:R:3:initial_magmoms:R:1:castep_labels:S:1 n_minim_iter=3 pbc="T T T"
P        3.03652478       1.73106882       0.05438897       0.00000000 NULL
P        1.82526687      -0.08926826       2.22341683       0.00000000 NULL
P        1.28357764       2.96048881       3.60413507       0.00000000 NULL
P        2.52102667       2.48129676       1.95716666       0.00000000 NULL
4
Lattice="3.496471365429345 -0.0068552183709938005 -0.08659322732401908 -0.3782222437933469 4.606544362640002 -0.035981791816949875 -1.5635171799634657 -0.4690845910610244 5.567011041304988" Properties=species:S:1:pos:R:3:initial_magmoms:R:1:castep_labels:S:1 n_minim_iter=4 pbc="T T T"
P        3.02016497       1.73111661       0.01786766       0.00000000 NULL
P        1.79892340      -0.09469735       2.19862683       0.00000000 NULL
P        1.23829570       2.94432753       3.59427955       0.00000000 NULL
P        2.49949444       2.48283818       1.92771807       0.00000000 NULL
4
Lattice="3.476433695081527 -0.006463312357896944 -0.11061900292227857 -0.37559853354028083 4.598238623998325 -0.04091245349737888 -1.5923851602216994 -0.4773906580648477 5.555903366043053" Properties=species:S:1:pos:R:3:initial_magmoms:R:1:castep_labels:S:1 n_minim_iter=5 pbc="T T T"
P        3.00120128       1.72678989      -0.00888969       0.00000000 NULL
P        1.77519971      -0.09830815       2.17147489       0.00000000 NULL
P        1.20053302       2.92997930       3.57267243       0.00000000 NULL
P        2.47675049       2.48034447       1.90001342       0.00000000 NULL
4
Lattice="3.430390937325393 -0.00978211687110688 -0.16449188108779617 -0.3750282911389117 4.584805673110617 -0.048681141158541136 -1.6561674635947683 -0.4908129729152115 5.524376256349459" Properties=species:S:1:pos:R:3:initial_magmoms:R:1:castep_labels:S:1 n_minim_iter=6 pbc="T T T"
P        2.95614451       1.71504822      -0.06747795       0.00000000 NULL
P        1.72104239      -0.10715601       2.10994800       0.00000000 NULL
P        1.11322043       2.90320592       3.51976190       0.00000000 NULL
P        2.42065691       2.47468697       1.83751724       0.00000000 NULL
4
Lattice="3.3774741957326118 -0.02137469040083717 -0.22875894004804245 -0.3844356784164812 4.585097066170243 -0.05026115968106996 -1.7321816799712888 -0.4959524322412483 5.486272291818658" Properties=species:S:1:pos:R:3:initial_magmoms:R:1:castep_labels:S:1 n_minim_iter=7 pbc="T T T"
P        2.90164221       1.69991302      -0.13369829       0.00000000 NULL
P        1.65656319      -0.11773141       2.04001566       0.00000000 NULL
P        1.00597332       2.88680753       3.45757400       0.00000000 NULL
P        2.34714209       2.47181343       1.76713933       0.00000000 NULL
4
Lattice="3.320437306753057 -0.03747614216603982 -0.3006194351646078 -0.3992409627331653 4.599716598002923 -0.04358375836994535 -1.817681199489488 -0.49162418988624734 5.44972152825479" Properties=species:S:1:pos:R:3:initial_magmoms:R:1:castep_labels:S:1 n_minim_iter=8 pbc="T T T"
P        2.84247867       1.68529182      -0.20364192       0.00000000 NULL
P        1.58526500      -0.12661048       1.96647627       0.00000000 NULL
P        0.88583124       2.88433480       3.39566542       0.00000000 NULL
P        2.26161890       2.47592515       1.69509205       0.00000000 NULL
4
Lattice="3.2119127977671766 -0.07641235996603771 -0.4516412476151242 -0.43814861971234303 4.645521576871351 -0.015742491411378488 -2.0014104779723247 -0.4653152314953416 5.382643222588903" Properties=species:S:1:pos:R:3:initial_magmoms:R:1:castep_labels:S:1 n_minim_iter=9 pbc="T T T"
P        2.72877559       1.65401340      -0.34477709       0.00000000 NULL
P        1.44262994      -0.14018936       1.81707227       0.00000000 NULL
P        0.63411713       2.89897818       3.28123070       0.00000000 NULL
P        2.08145320       2.49390098       1.55442043       0.00000000 NULL
4
Lattice="3.236478678428113 -0.11454886756008101 -0.5511799857206725 -0.49008084372997085 4.693772258996016 0.04654036141965173 -2.1603672928916637 -0.3920618609614254 5.372953285936809" Properties=species:S:1:pos:R:3:initial_magmoms:R:1:castep_labels:S:1 n_minim_iter=10 pbc="T T T"
P        2.73829965       1.61932588      -0.42693632       0.00000000 NULL
P        1.40716075      -0.13187830       1.72373405       0.00000000 NULL
P        0.49299370       2.95110516       3.27610149       0.00000000 NULL
P        2.01070909       2.53081990       1.49961050       0.00000000 NULL
4
Lattice="3.2976978232991803 -0.1150477171052167 -0.5506384208143369 -0.49719315775444256 4.667952128523856 0.07191997396993807 -2.1845273708423716 -0.35921090931268546 5.311202290149069" Properties=species:S:1:pos:R:3:initial_magmoms:R:1:castep_labels:S:1 n_minim_iter=11 pbc="T T T"
P        2.79488342       1.60075022      -0.42090420       0.00000000 NULL
P        1.44987555      -0.11906864       1.68721357       0.00000000 NULL
P        0.51430302       2.95585846       3.27127381       0.00000000 NULL
P        2.04376433       2.53435961       1.48983502       0.00000000 NULL
