10
Lattice="4.0914499999999965 0.0 1.615655436460063e-16 0.0 5.6266 0.0 -0.5520790320003924 0.0 9.797127194812035" Properties=species:S:1:pos:R:3:initial_magmoms:R:1:castep_labels:S:1 n_minim_iter=1 pbc="T T T"
P        1.16651504       3.84311297       4.42285919       0.00000000 NULL
P        1.16651504       1.78348703       4.42285919       0.00000000 NULL
P        1.46662072       1.00242493       7.85239451       0.00000000 NULL
P        1.46662072       4.62417507       7.85239451       0.00000000 NULL
P        0.22480430       4.62529927       6.06560915       0.00000000 NULL
P        0.22480430       1.00130073       6.06560915       0.00000000 NULL
P        2.23048844       1.80780745       6.13750928       0.00000000 NULL
P        2.23048844       3.81879255       6.13750928       0.00000000 NULL
P        0.70327799       4.61954157       2.24324136       0.00000000 NULL
P        0.70327799       1.00705843       2.24324136       0.00000000 NULL
10
Lattice="4.101777641333997 0.0 0.0010262728521955229 0.0 5.640614966265133 0.0 -0.5510151423184904 0.0 9.822501562544698" Properties=species:S:1:pos:R:3:initial_magmoms:R:1:castep_labels:S:1 n_minim_iter=2 pbc="T T T"
P        1.17051148       3.85281298       4.43415297       0.00000000 NULL
P        1.17051148       1.78780199       4.43415297       0.00000000 NULL
P        1.47226175       1.00513960       7.87353665       0.00000000 NULL
P        1.47226175       4.63547537       7.87353665       0.00000000 NULL
P        0.22661207       4.63666681       6.08157859       0.00000000 NULL
P        0.22661207       1.00394816       6.08157859       0.00000000 NULL
P        2.23803944       1.81221158       6.15410388       0.00000000 NULL
P        2.23803944       3.82840338       6.15410388       0.00000000 NULL
P        0.70560386       4.63090711       2.24928031       0.00000000 NULL
P        0.70560386       1.00970785       2.24928031       0.00000000 NULL
10
Lattice="4.430608535221257 0.0 0.03396432025803821 0.0 6.085012745965414 0.0 -0.5165145133496183 0.0 10.624036746054385" Properties=species:S:1:pos:R:3:initial_magmoms:R:1:castep_labels:S:1 n_minim_iter=3 pbc="T T T"
P        1.29787684       4.16053313       4.79026907       0.00000000 NULL
P        1.29787684       1.92447961       4.79026907       0.00000000 NULL
P        1.65236930       1.09146235       8.54205702       0.00000000 NULL
P        1.65236930       4.99355039       8.54205702       0.00000000 NULL
P        0.28422167       4.99684920       6.58623559       0.00000000 NULL
P        0.28422167       1.08816354       6.58623559       0.00000000 NULL
P        2.47937095       1.95165535       6.67879175       0.00000000 NULL
P        2.47937095       4.13335739       6.67879175       0.00000000 NULL
P        0.77979202       4.99131877       2.44023024       0.00000000 NULL
P        0.77979202       1.09369397       2.44023024       0.00000000 NULL
10
Lattice="4.589967376273455 0.0 0.037716621850525545 0.0 6.17343082317387 0.0 -0.5290325445448935 0.0 10.665082879116488" Properties=species:S:1:pos:R:3:initial_magmoms:R:1:castep_labels:S:1 n_minim_iter=4 pbc="T T T"
P        1.34680913       4.22249644       4.80436283       0.00000000 NULL
P        1.34680913       1.95093438       4.80436283       0.00000000 NULL
P        1.71547289       1.10901804       8.57765145       0.00000000 NULL
P        1.71547289       5.06441278       8.57765145       0.00000000 NULL
P        0.29331764       5.06655898       6.61410719       0.00000000 NULL
P        0.29331764       1.10687185       6.61410719       0.00000000 NULL
P        2.57905023       1.97749413       6.70781432       0.00000000 NULL
P        2.57905023       4.19593669       6.70781432       0.00000000 NULL
P        0.80907002       5.06698698       2.45229359       0.00000000 NULL
P        0.80907002       1.10644384       2.45229359       0.00000000 NULL
10
Lattice="4.718397289063479 2.6382952422823597e-20 0.03907406465392728 0.0 6.153982732652139 4.318343576444121e-18 -0.5431117639239403 7.460275082437695e-18 10.544724046584866" Properties=species:S:1:pos:R:3:initial_magmoms:R:1:castep_labels:S:1 n_minim_iter=5 pbc="T T T"
P        1.38377430       4.21070502       4.74654198       0.00000000 NULL
P        1.38377430       1.94327771       4.74654198       0.00000000 NULL
P        1.76244267       1.10655463       8.48050620       0.00000000 NULL
P        1.76244267       5.04742810       8.48050620       0.00000000 NULL
P        0.29709261       5.04761893       6.54188080       0.00000000 NULL
P        0.29709261       1.10636380       6.54188080       0.00000000 NULL
P        2.65918109       1.96843407       6.63400051       0.00000000 NULL
P        2.65918109       4.18554867       6.63400051       0.00000000 NULL
P        0.83189549       5.05610065       2.42744294       0.00000000 NULL
P        0.83189549       1.09788208       2.42744294       0.00000000 NULL
10
Lattice="4.7896465133597825 2.6291270695436814e-20 0.03993653509981203 2.6704814765148556e-22 6.132597416930238 4.282969546287475e-18 -0.5506605473919499 7.434350352885943e-18 10.458210043808778" Properties=species:S:1:pos:R:3:initial_magmoms:R:1:castep_labels:S:1 n_minim_iter=6 pbc="T T T"
P        1.40418582       4.19713696       4.70606757       0.00000000 NULL
P        1.40418582       1.93546046       4.70606757       0.00000000 NULL
P        1.78852138       1.10354075       8.41066118       0.00000000 NULL
P        1.78852138       5.02905667       8.41066118       0.00000000 NULL
P        0.29910815       5.02832759       6.48966784       0.00000000 NULL
P        0.29910815       1.10426982       6.48966784       0.00000000 NULL
P        2.70438334       1.95990690       6.58048375       0.00000000 NULL
P        2.70438334       4.17269051       6.58048375       0.00000000 NULL
P        0.84467813       5.04111027       2.40906388       0.00000000 NULL
P        0.84467813       1.09148715       2.40906388       0.00000000 NULL
10
Lattice="5.083045878587445 2.5957297131885208e-20 0.044238406201837194 2.0805726798644754e-21 6.058626854875609 4.151176902344593e-18 -0.5799493470063133 7.344678104011812e-18 10.135763873380064" Properties=species:S:1:pos:R:3:initial_magmoms:R:1:castep_labels:S:1 n_minim_iter=7 pbc="T T T"
P        1.48882994       4.15100095       4.55648356       0.00000000 NULL
P        1.48882994       1.90762591       4.55648356       0.00000000 NULL
P        1.89711472       1.09404423       8.15106197       0.00000000 NULL
P        1.89711472       4.96458262       8.15106197       0.00000000 NULL
P        0.30855663       4.96107505       6.29520686       0.00000000 NULL
P        0.30855663       1.09755181       6.29520686       0.00000000 NULL
P        2.89202535       1.92993806       6.38109994       0.00000000 NULL
P        2.89202535       4.12868880       6.38109994       0.00000000 NULL
P        0.89777145       4.98873610       2.34029445       0.00000000 NULL
P        0.89777145       1.06989075       2.34029445       0.00000000 NULL
10
Lattice="5.649850253438888 2.5125697731804974e-20 0.05202339838370676 4.810473404298309e-21 5.922786121229805 3.821636025551023e-18 -0.6377895386217991 7.179996980462727e-18 9.329894659281882" Properties=species:S:1:pos:R:3:initial_magmoms:R:1:castep_labels:S:1 n_minim_iter=8 pbc="T T T"
P        1.65060888       4.07304108       4.19055174       0.00000000 NULL
P        1.65060888       1.84974504       4.19055174       0.00000000 NULL
P        2.09780478       1.08340335       7.50167769       0.00000000 NULL
P        2.09780478       4.83938277       7.50167769       0.00000000 NULL
P        0.32084631       4.83558018       5.80764114       0.00000000 NULL
P        0.32084631       1.08720594       5.80764114       0.00000000 NULL
P        3.27009165       1.87315234       5.87623878       0.00000000 NULL
P        3.27009165       4.04963378       5.87623878       0.00000000 NULL
P        0.99813835       4.88478266       2.16391861       0.00000000 NULL
P        0.99813835       1.03800346       2.16391861       0.00000000 NULL
10
Lattice="6.028652751116987 2.516592501929154e-20 -0.11039214025151409 -1.5776493773630182e-19 5.993313415939162 3.6899785877459146e-18 -1.077813150461274 7.265828420403557e-18 9.026635289949688" Properties=species:S:1:pos:R:3:initial_magmoms:R:1:castep_labels:S:1 n_minim_iter=9 pbc="T T T"
P        1.58728368       4.14109814       3.99955329       0.00000000 NULL
P        1.58728368       1.85221528       3.99955329       0.00000000 NULL
P        1.88643441       1.11268264       7.18257264       0.00000000 NULL
P        1.88643441       4.88063077       7.18257264       0.00000000 NULL
P        0.09119471       4.87960801       5.61024239       0.00000000 NULL
P        0.09119471       1.11370541       5.61024239       0.00000000 NULL
P        3.27877628       1.88254034       5.56916763       0.00000000 NULL
P        3.27877628       4.11077308       5.56916763       0.00000000 NULL
P        0.96926989       4.93101291       2.06166973       0.00000000 NULL
P        0.96926989       1.06230050       2.06166973       0.00000000 NULL
10
Lattice="6.024112145801331 3.0483749021068734e-20 -0.07520562541873242 -1.1691834586753932e-19 5.7347478928475075 3.603894198354315e-18 -0.9929450635125731 6.954863391331751e-18 8.807894708690759" Properties=species:S:1:pos:R:3:initial_magmoms:R:1:castep_labels:S:1 n_minim_iter=10 pbc="T T T"
P        1.61829568       3.96869296       3.91751106       0.00000000 NULL
P        1.61829568       1.76605494       3.91751106       0.00000000 NULL
P        1.94519516       1.06975922       7.01997226       0.00000000 NULL
P        1.94519516       4.66498867       7.01997226       0.00000000 NULL
P        0.15672780       4.66552354       5.47886464       0.00000000 NULL
P        0.15672780       1.06922435       5.47886464       0.00000000 NULL
P        3.32960960       1.79629928       5.45629668       0.00000000 NULL
P        3.32960960       3.93844861       5.45629668       0.00000000 NULL
P        0.98650938       4.71748205       2.01670582       0.00000000 NULL
P        0.98650938       1.01726584       2.01670582       0.00000000 NULL
10
Lattice="6.092805192468662 3.0351595710779166e-20 -0.07219189455992465 -1.151466083318471e-19 5.844954050775953 3.638155332359367e-18 -0.9949976576184738 7.088425055104344e-18 8.891649198973498" Properties=species:S:1:pos:R:3:initial_magmoms:R:1:castep_labels:S:1 n_minim_iter=11 pbc="T T T"
P        1.64196229       4.04879816       3.95730290       0.00000000 NULL
P        1.64196229       1.79615589       3.95730290       0.00000000 NULL
P        1.97022232       1.09524171       7.08900057       0.00000000 NULL
P        1.97022232       4.74971234       7.08900057       0.00000000 NULL
P        0.16692084       4.75025817       5.53239841       0.00000000 NULL
P        0.16692084       1.09469588       5.53239841       0.00000000 NULL
P        3.37598334       1.82597476       5.50995098       0.00000000 NULL
P        3.37598334       4.01897929       5.50995098       0.00000000 NULL
P        0.99817113       4.80304249       2.03451282       0.00000000 NULL
P        0.99817113       1.04191156       2.03451282       0.00000000 NULL
10
Lattice="6.109200120636012 3.1041063938374924e-20 -0.07010331164183516 -1.1242152370350848e-19 5.8173312205693515 3.635234088720857e-18 -0.99220871569493 7.054957984634846e-18 8.884080636412687" Properties=species:S:1:pos:R:3:initial_magmoms:R:1:castep_labels:S:1 n_minim_iter=12 pbc="T T T"
P        1.64911477       4.03256696       3.95586777       0.00000000 NULL
P        1.64911477       1.78476426       3.95586777       0.00000000 NULL
P        1.97597320       1.09293382       7.08340833       0.00000000 NULL
P        1.97597320       4.72439741       7.08340833       0.00000000 NULL
P        0.17489337       4.72514857       5.52867713       0.00000000 NULL
P        0.17489337       1.09218265       5.52867713       0.00000000 NULL
P        3.38917314       1.81452402       5.50636946       0.00000000 NULL
P        3.38917314       4.00280720       5.50636946       0.00000000 NULL
P        1.00095422       4.77823828       2.03192497       0.00000000 NULL
P        1.00095422       1.03909294       2.03192497       0.00000000 NULL
10
Lattice="6.134732667936209 -3.5291104177169753e-20 -0.06727813753977743 -1.0894015716776862e-19 5.792239538164756 9.206684701830734e-18 -0.9888889620556675 1.5533168636173885e-17 8.883507808497786" Properties=species:S:1:pos:R:3:initial_magmoms:R:1:castep_labels:S:1 n_minim_iter=13 pbc="T T T"
P        1.66024273       4.01945507       3.95831052       0.00000000 NULL
P        1.66024273       1.77278447       3.95831052       0.00000000 NULL
P        1.98452325       1.09259610       7.08363504       0.00000000 NULL
P        1.98452325       4.69964344       7.08363504       0.00000000 NULL
P        0.18599345       4.70062491       5.52978380       0.00000000 NULL
P        0.18599345       1.09161463       5.52978380       0.00000000 NULL
P        3.40892151       1.80242012       5.50754848       0.00000000 NULL
P        3.40892151       3.98981941       5.50754848       0.00000000 NULL
P        1.00502214       4.75412632       2.03044641       0.00000000 NULL
P        1.00502214       1.03811322       2.03044641       0.00000000 NULL
10
Lattice="6.241212640089943 -3.0760083735045115e-20 -0.05392990225518758 -7.113138023542194e-20 5.683885249648761 9.216603913185935e-18 -0.9712939776478571 1.524275423713024e-17 8.890832586948424" Properties=species:S:1:pos:R:3:initial_magmoms:R:1:castep_labels:S:1 n_minim_iter=14 pbc="T T T"
P        1.71132984       3.96442624       3.97400494       0.00000000 NULL
P        1.71132984       1.71945900       3.97400494       0.00000000 NULL
P        2.01975234       1.09303094       7.09263949       0.00000000 NULL
P        2.01975234       4.59085431       7.09263949       0.00000000 NULL
P        0.23772095       4.59266501       5.54151726       0.00000000 NULL
P        0.23772095       1.09122024       5.54151726       0.00000000 NULL
P        3.49285910       1.74848122       5.51970164       0.00000000 NULL
P        3.49285910       3.93540402       5.51970164       0.00000000 NULL
P        1.02094852       4.64765475       2.02564710       0.00000000 NULL
P        1.02094852       1.03623050       2.02564710       0.00000000 NULL
