2
Lattice="2.35404 -4.308658703393564e-17 -6.6869055263116935e-16 0.037418422272241604 4.563366591900615 3.3276079966469976e-16 1.068622823423061 2.200007964351357 4.112203301692404" Properties=species:S:1:pos:R:3:initial_magmoms:R:1:castep_labels:S:1 n_minim_iter=1 pbc="T T T"
P        0.51850130       3.20239045       0.87799241       0.00000000 NULL
P        1.44635402       3.61697820       2.60064455       0.00000000 NULL
2
Lattice="2.3555828237288807 0.00011476422981685632 0.0004730156450430399 0.037665419469431506 4.5633538229975175 0.0007412530339419021 1.0702567444125612 2.2007142191561937 4.11498722150277" Properties=species:S:1:pos:R:3:initial_magmoms:R:1:castep_labels:S:1 n_minim_iter=2 pbc="T T T"
P        0.51905448       3.20246737       0.87877277       0.00000000 NULL
P        1.44812004       3.61753458       2.60322960       0.00000000 NULL
2
Lattice="2.4703861166067815 0.008793658555809374 0.036065754605099566 0.05631452250634367 4.56251748067471 0.055377042592152634 1.192658927162305 2.252908639706126 4.3208030994575894" Properties=species:S:1:pos:R:3:initial_magmoms:R:1:castep_labels:S:1 n_minim_iter=3 pbc="T T T"
P        0.56006328       3.20807641       0.93592986       0.00000000 NULL
P        1.58067272       3.65893101       2.79496832       0.00000000 NULL
2
Lattice="2.518384772521928 0.010635370531960836 0.041626551870389085 0.060647686292606307 4.540680792362899 0.06496587628629559 1.2258832432718476 2.2517642349580718 4.351221853741217" Properties=species:S:1:pos:R:3:initial_magmoms:R:1:castep_labels:S:1 n_minim_iter=4 pbc="T T T"
P        0.57315821       3.19321902       0.94470232       0.00000000 NULL
P        1.62119358       3.64989188       2.82475672       0.00000000 NULL
