7
Lattice="2.4021600000000043 -3.5663922588653716e-14 -2.8765253742971197e-14 -0.5545950313232464 7.939182836547574 -9.989135581173872e-16 -0.19065488852668636 -2.527107689275609 8.313952699960767" Properties=species:S:1:pos:R:3:initial_magmoms:R:1:castep_labels:S:1 n_minim_iter=1 pbc="T T T"
P        1.29676178      -0.50192934       4.97545091       0.00000000 NULL
P        1.56740956       7.13281794       1.63809976       0.00000000 NULL
P        1.14509124       5.09576350       8.01234245       0.00000000 NULL
P        0.18434961       6.10837785       3.08176610       0.00000000 NULL
P        0.22311325       1.21340535       5.26373223       0.00000000 NULL
P       -0.13212105       1.84642051       7.12767719       0.00000000 NULL
P        1.43668501       0.53645223       3.18366191       0.00000000 NULL
7
Lattice="2.4072878148091292 -0.0008171727637846075 0.0005447966729790795 -0.5584796787218927 7.951874124365582 0.0013671585718821998 -0.18831663695959663 -2.5294591088106193 8.330834894048978" Properties=species:S:1:pos:R:3:initial_magmoms:R:1:castep_labels:S:1 n_minim_iter=2 pbc="T T T"
P        1.30091117      -0.50258123       4.98625483       0.00000000 NULL
P        1.56858723       7.14382076       1.64312383       0.00000000 NULL
P        1.14760084       5.10496555       8.03012418       0.00000000 NULL
P        0.18352825       6.11811741       3.08951921       0.00000000 NULL
P        0.22431979       1.21647077       5.27491118       0.00000000 NULL
P       -0.13141905       1.85081589       7.14320490       0.00000000 NULL
P        1.44023202       0.53776134       3.19057899       0.00000000 NULL
7
Lattice="2.579120068352663 -0.028766360938008537 0.019826953889247226 -0.6905237678269064 8.375212338500146 0.04977274467677846 -0.10581551619796722 -2.604586480525251 8.894670920997457" Properties=species:S:1:pos:R:3:initial_magmoms:R:1:castep_labels:S:1 n_minim_iter=3 pbc="T T T"
P        1.44252915      -0.52290886       5.34835944       0.00000000 NULL
P        1.60680789       7.51089375       1.81430562       0.00000000 NULL
P        1.23382372       5.41451104       8.62734323       0.00000000 NULL
P        0.15627710       6.44358771       3.35116949       0.00000000 NULL
P        0.26647296       1.32084713       5.64957304       0.00000000 NULL
P       -0.10520379       2.00032092       7.66369764       0.00000000 NULL
P        1.56011770       0.58249579       3.42252885       0.00000000 NULL
7
Lattice="2.6451257569333535 -0.03609343700417705 0.04413553429834903 -0.7299788513654198 8.560100682262528 0.10599537858191163 -0.01921329536649727 -2.5975642175478773 9.07228153030472" Properties=species:S:1:pos:R:3:initial_magmoms:R:1:castep_labels:S:1 n_minim_iter=4 pbc="T T T"
P        1.53112089      -0.50228890       5.48081348       0.00000000 NULL
P        1.64050743       7.68353193       1.92135676       0.00000000 NULL
P        1.33074144       5.59085839       8.87071335       0.00000000 NULL
P        0.17739475       6.59953609       3.47302220       0.00000000 NULL
P        0.32037986       1.39424634       5.79169654       0.00000000 NULL
P       -0.04062027       2.09977762       7.84992954       0.00000000 NULL
P        1.62994184       0.62038727       3.51179594       0.00000000 NULL
7
Lattice="2.647305199738629 -0.03854296932347859 0.07100597586758518 -0.7385777761238994 8.63801554736534 0.1392221444489246 0.07619012937117023 -2.5806989808844163 9.091085597022841" Properties=species:S:1:pos:R:3:initial_magmoms:R:1:castep_labels:S:1 n_minim_iter=5 pbc="T T T"
P        1.58869824      -0.48268220       5.51555008       0.00000000 NULL
P        1.64834552       7.75970990       1.97855622       0.00000000 NULL
P        1.41619703       5.67864298       8.94259757       0.00000000 NULL
P        0.20919392       6.66798122       3.51520242       0.00000000 NULL
P        0.37644974       1.43597950       5.82724747       0.00000000 NULL
P        0.03936123       2.15277842       7.88561672       0.00000000 NULL
P        1.66685610       0.64190501       3.53905478       0.00000000 NULL
7
Lattice="2.6311519628098643 -0.04009575084812789 0.10473545111646079 -0.7399803935552589 8.704601379080025 0.17735789321506906 0.1958445243866368 -2.5535656603207157 9.075243754297968" Properties=species:S:1:pos:R:3:initial_magmoms:R:1:castep_labels:S:1 n_minim_iter=6 pbc="T T T"
P        1.64980953      -0.45601895       5.53490211       0.00000000 NULL
P        1.64990936       7.82802949       2.03986917       0.00000000 NULL
P        1.51762812       5.76595805       8.99174254       0.00000000 NULL
P        0.25179137       6.72907008       3.54974742       0.00000000 NULL
P        0.44617527       1.48125994       5.84588345       0.00000000 NULL
P        0.14186504       2.20833432       7.89429980       0.00000000 NULL
P        1.70293023       0.66527884       3.55749748       0.00000000 NULL
7
Lattice="2.5365371024118506 -0.03790022020764226 0.28422697970410593 -0.7108800627512595 9.0661237550563 0.40526974804619365 0.822270125520567 -2.3869103713005844 9.014217696293626" Properties=species:S:1:pos:R:3:initial_magmoms:R:1:castep_labels:S:1 n_minim_iter=7 pbc="T T T"
P        1.96508937      -0.28787022       5.65660359       0.00000000 NULL
P        1.68033528       8.21458660       2.39499281       0.00000000 NULL
P        2.07509213       6.26594244       9.29976403       0.00000000 NULL
P        0.50489819       7.06408947       3.76188095       0.00000000 NULL
P        0.82750561       1.74585709       5.97035865       0.00000000 NULL
P        0.69355313       2.52677656       7.97576398       0.00000000 NULL
P        1.89479140       0.80421255       3.66512816       0.00000000 NULL
7
Lattice="2.593472335086779 0.021022101104708823 0.26238853681523644 -0.5292855457732817 9.336802360635227 0.34711385841207953 0.6801805840594866 -2.548257371814924 9.230527779205602" Properties=species:S:1:pos:R:3:initial_magmoms:R:1:castep_labels:S:1 n_minim_iter=8 pbc="T T T"
P        1.92096628      -0.30550539       5.76894365       0.00000000 NULL
P        1.87121360       8.51444806       2.35954799       0.00000000 NULL
P        2.15380462       6.41059163       9.43593890       0.00000000 NULL
P        0.63344825       7.22537107       3.78619880       0.00000000 NULL
P        0.82202380       1.76377302       6.09295914       0.00000000 NULL
P        0.67084193       2.53228622       8.13199298       0.00000000 NULL
P        1.92767808       0.83542954       3.70477042       0.00000000 NULL
7
Lattice="2.5150031476620214 0.031101179425727092 0.2578522981503882 -0.4778575530200216 9.284403410688313 0.35241107907218805 0.6601051287026888 -2.5286684684587386 9.040844396349137" Properties=species:S:1:pos:R:3:initial_magmoms:R:1:castep_labels:S:1 n_minim_iter=9 pbc="T T T"
P        1.86354666      -0.28879241       5.64992678       0.00000000 NULL
P        1.84591055       8.47789777       2.32657990       0.00000000 NULL
P        2.12279001       6.38705173       9.25654675       0.00000000 NULL
P        0.64734589       7.18624798       3.71686940       0.00000000 NULL
P        0.81240725       1.75994482       5.97498261       0.00000000 NULL
P        0.66873818       2.52245967       7.96998732       0.00000000 NULL
P        1.87941705       0.83824078       3.63075393       0.00000000 NULL
7
Lattice="2.517286196031354 0.042822561020040895 0.2636689895510381 -0.43964526728871267 9.341916742183843 0.37105970830860563 0.6677246166997318 -2.5278318823292607 9.022510637508844" Properties=species:S:1:pos:R:3:initial_magmoms:R:1:castep_labels:S:1 n_minim_iter=10 pbc="T T T"
P        1.87048838      -0.27194719       5.64318899       0.00000000 NULL
P        1.88368060       8.54571955       2.34850317       0.00000000 NULL
P        2.16798364       6.45109148       9.26089659       0.00000000 NULL
P        0.68605379       7.23411990       3.72691234       0.00000000 NULL
P        0.83380156       1.78599885       5.97276660       0.00000000 NULL
P        0.69511238       2.55430801       7.96630391       0.00000000 NULL
P        1.89363949       0.85804426       3.62882301       0.00000000 NULL
7
Lattice="2.5150251750781045 0.0505967905941486 0.26682277147492645 -0.4134292862597542 9.374297867345568 0.3819347893976436 0.670640805922795 -2.5271764724944163 9.006528446421695" Properties=species:S:1:pos:R:3:initial_magmoms:R:1:castep_labels:S:1 n_minim_iter=11 pbc="T T T"
P        1.87169024      -0.26142835       5.63577107       0.00000000 NULL
P        1.90607944       8.58506876       2.36043179       0.00000000 NULL
P        2.19381314       6.48821757       9.25812399       0.00000000 NULL
P        0.71031798       7.26116712       3.73058671       0.00000000 NULL
P        0.84613185       1.80108470       5.96808177       0.00000000 NULL
P        0.71070048       2.57259606       7.95966245       0.00000000 NULL
P        1.89969748       0.87004405       3.62537747       0.00000000 NULL
7
Lattice="2.5072554748061187 0.07611849680489381 0.2765352891957574 -0.32728576165128337 9.4775334803585 0.4158605264618642 0.678023596519232 -2.526062977958048 8.958071897128542" Properties=species:S:1:pos:R:3:initial_magmoms:R:1:castep_labels:S:1 n_minim_iter=12 pbc="T T T"
P        1.87436513      -0.22821874       5.61324402       0.00000000 NULL
P        1.97942375       8.71096590       2.39832577       0.00000000 NULL
P        2.27631240       6.60624165       9.25057358       0.00000000 NULL
P        0.78870327       7.34726652       3.74237894       0.00000000 NULL
P        0.88520086       1.84872671       5.95429801       0.00000000 NULL
P        0.76003743       2.63032638       7.94035056       0.00000000 NULL
P        1.91814920       0.90843520       3.61482091       0.00000000 NULL
7
Lattice="2.505443018886744 0.08159855608748101 0.2783603217885353 -0.30875561726166917 9.497566810252136 0.4224732825752573 0.6787188409170621 -2.525911265114607 8.949582747483106" Properties=species:S:1:pos:R:3:initial_magmoms:R:1:castep_labels:S:1 n_minim_iter=13 pbc="T T T"
P        1.87437935      -0.22153504       5.60931274       0.00000000 NULL
P        1.99509698       8.73587278       2.40615653       0.00000000 NULL
P        2.29310060       6.62951369       9.24989076       0.00000000 NULL
P        0.80505804       7.36407324       3.74493413       0.00000000 NULL
P        0.89304679       1.85805594       5.95217581       0.00000000 NULL
P        0.76989089       2.64164584       7.93753520       0.00000000 NULL
P        1.92148040       0.91615162       3.61288055       0.00000000 NULL
7
Lattice="2.478897323031843 0.17102227550208118 0.3074363914487353 -0.007079888175850413 9.826647054168191 0.5319174383062749 0.6873838614000543 -2.52268902617911 8.815014474683979" Properties=species:S:1:pos:R:3:initial_magmoms:R:1:castep_labels:S:1 n_minim_iter=14 pbc="T T T"
P        1.87569289      -0.11286768       5.54732296       0.00000000 NULL
P        2.25369740       9.14453369       2.53552903       0.00000000 NULL
P        2.56616868       7.01208200       9.24344776       0.00000000 NULL
P        1.06949680       7.64028090       3.78897881       0.00000000 NULL
P        1.02002648       2.01246177       5.92056064       0.00000000 NULL
P        0.92875819       2.82862387       7.89558827       0.00000000 NULL
P        1.97565666       1.04266338       3.58281219       0.00000000 NULL
