20
Lattice="8.927106815451769 0.0 0.0 0.0 8.927106815451769 0.0 0.0 0.0 6.1598940006776655" Properties=species:S:1:pos:R:3:initial_magmoms:R:1:castep_labels:S:1:forces:R:3 n_minim_iter=1 energy=-104.960790884218 stress="-0.000155265235047938 0.0 0.0 0.0 -0.000155265235047938 0.0 0.0 0.0 -4.6628460118699836e-05" free_energy=-104.960790884218 pbc="T T T"
P        2.42416835       1.65340068       4.04764224       0.00000000 NULL      -0.00294600      -0.01020900      -0.00852600
P        6.50293847       7.27370613       4.04764224       0.00000000 NULL       0.00294600       0.01020900      -0.00852600
P        1.65340068       6.50293847       0.96769524       0.00000000 NULL      -0.01020900       0.00294600      -0.00852600
P        7.27370613       2.42416835       0.96769524       0.00000000 NULL       0.01020900      -0.00294600      -0.00852600
P        2.33172955       7.16604402       3.03344908       0.00000000 NULL       0.00032700       0.00020500       0.00419600
P        6.59537727       1.76106280       3.03344908       0.00000000 NULL      -0.00032700      -0.00020500       0.00419600
P        7.16604402       6.59537727      -0.04649792       0.00000000 NULL       0.00020500      -0.00032700       0.00419600
P        1.76106280       2.33172955      -0.04649792       0.00000000 NULL      -0.00020500       0.00032700       0.00419600
P        6.25002545       5.16491937       4.71125141       0.00000000 NULL      -0.00719600      -0.00495400       0.00544600
P        2.67708136       3.76218744       4.71125141       0.00000000 NULL       0.00719600       0.00495400       0.00544600
P        5.16491937       2.67708136       1.63130441       0.00000000 NULL      -0.00495400       0.00719600       0.00544600
P        3.76218744       6.25002545       1.63130441       0.00000000 NULL       0.00495400      -0.00719600       0.00544600
P        8.30801735       5.85863050       4.37016744       0.00000000 NULL       0.00927400      -0.00248400      -0.00347500
P        0.61908947       3.06847632       4.37016744       0.00000000 NULL      -0.00927400       0.00248400      -0.00347500
P        5.85863050       0.61908947       1.29022044       0.00000000 NULL      -0.00248400      -0.00927400      -0.00347500
P        3.06847632       8.30801735       1.29022044       0.00000000 NULL       0.00248400       0.00927400      -0.00347500
P        7.87746263       4.60523439       1.67822931       0.00000000 NULL      -0.00178500       0.00406700       0.00235900
P        1.04964419       4.32187243       1.67822931       0.00000000 NULL       0.00178500      -0.00406700       0.00235900
P        4.60523439       1.04964419       4.75817631       0.00000000 NULL       0.00406700       0.00178500       0.00235900
P        4.32187243       7.87746263       4.75817631       0.00000000 NULL      -0.00406700      -0.00178500       0.00235900
20
Lattice="8.928534341550865 0.0 0.0 0.0 8.928534341550865 0.0 0.0 0.0 6.160189801324082" Properties=species:S:1:pos:R:3:initial_magmoms:R:1:castep_labels:S:1:forces:R:3 n_minim_iter=2 energy=-104.960805395406 stress="3.583919505473184e-06 0.0 0.0 0.0 3.583919505473184e-06 0.0 0.0 0.0 5.3331165822921984e-05" free_energy=-104.960805395406 pbc="T T T"
P        2.42454982       1.65364366       4.04781873       0.00000000 NULL      -0.00321100      -0.00549500      -0.00532800
P        6.50398453       7.27489069       4.04781873       0.00000000 NULL       0.00321100       0.00549500      -0.00532800
P        1.65364366       6.50398453       0.96772383       0.00000000 NULL      -0.00549500       0.00321100      -0.00532800
P        7.27489069       2.42454982       0.96772383       0.00000000 NULL       0.00549500      -0.00321100      -0.00532800
P        2.33210310       7.16719037       3.03360355       0.00000000 NULL       0.00242100      -0.00018400      -0.00010800
P        6.59643125       1.76134398       3.03360355       0.00000000 NULL      -0.00242100       0.00018400      -0.00010800
P        7.16719037       6.59643125      -0.04649135       0.00000000 NULL      -0.00018500      -0.00242100      -0.00010800
P        1.76134398       2.33210310      -0.04649135       0.00000000 NULL       0.00018400       0.00242100      -0.00010800
P        6.25100979       5.16573490       4.71148907       0.00000000 NULL      -0.00201100       0.00120400       0.00548900
P        2.67752455       3.76279945       4.71148907       0.00000000 NULL       0.00201100      -0.00120400       0.00548900
P        5.16573490       2.67752455       1.63139417       0.00000000 NULL       0.00120400       0.00201100       0.00548900
P        3.76279945       6.25100979       1.63139417       0.00000000 NULL      -0.00120400      -0.00201100       0.00548900
P        8.30936533       5.85956214       4.37037000       0.00000000 NULL       0.00292400      -0.00227800      -0.00195400
P        0.61916901       3.06897221       4.37037000       0.00000000 NULL      -0.00292400       0.00227800      -0.00195400
P        5.85956214       0.61916901       1.29027510       0.00000000 NULL      -0.00227800      -0.00292400      -0.00195400
P        3.06897221       8.30936533       1.29027510       0.00000000 NULL       0.00227800       0.00292400      -0.00195400
P        7.87871856       4.60597934       1.67831485       0.00000000 NULL       0.00217900       0.00268900       0.00190000
P        1.04981578       4.32255500       1.67831485       0.00000000 NULL      -0.00217800      -0.00268900       0.00190000
P        4.60597934       1.04981578       4.75840975       0.00000000 NULL       0.00268900      -0.00217800       0.00190100
P        4.32255500       7.87871856       4.75840975       0.00000000 NULL      -0.00268900       0.00217800       0.00190100
