13
Lattice="4.100469999999999 -7.434975106678695e-17 -1.7504536166160313e-15 -0.5628237848612643 8.696496489006043 4.972573264822171e-15 -1.7978494890806977 -2.683672543309097 8.278478765558388" Properties=species:S:1:pos:R:3:initial_magmoms:R:1:castep_labels:S:1 n_minim_iter=1 pbc="T T T"
P        0.29238956       4.53067006       0.55748932       0.00000000 NULL
P        0.67567798       4.92714088       2.49405150       0.00000000 NULL
P        0.05868998       8.30334898       1.08656441       0.00000000 NULL
P        1.52094980      -0.30871904       5.38034312       0.00000000 NULL
P        2.54158375       4.79839143       5.12628241       0.00000000 NULL
P        0.34480383      -1.83447929       6.04858773       0.00000000 NULL
P        0.93871584       2.38032958       7.42928318       0.00000000 NULL
P        2.64289746       0.22667905       3.21577590       0.00000000 NULL
P        0.95739488       4.58180994       7.28686188       0.00000000 NULL
P       -1.14190378      -0.63862625       6.79789850       0.00000000 NULL
P        0.93119001       6.47863488       3.73081898       0.00000000 NULL
P       -0.69711791       3.78602439       8.17130889       0.00000000 NULL
P        1.10936440       1.60029055       1.13420788       0.00000000 NULL
13
Lattice="4.102022906668563 0.0008046904834977405 -0.0013891012655355961 -0.5613303035882048 8.698642473614225 0.0023538777507968265 -1.8018614836927858 -2.682662446141771 8.278500073213085" Properties=species:S:1:pos:R:3:initial_magmoms:R:1:castep_labels:S:1 n_minim_iter=2 pbc="T T T"
P        0.29318481       4.53202437       0.55834933       0.00000000 NULL
P        0.67603613       4.92898636       2.49517536       0.00000000 NULL
P        0.05986521       8.30568844       1.08868720       0.00000000 NULL
P        1.51968957      -0.30691681       5.37956103       0.00000000 NULL
P        2.54167991       4.80158809       5.12668386       0.00000000 NULL
P        0.34242215      -1.83372496       6.04803412       0.00000000 NULL
P        0.93698332       2.38290654       7.42959941       0.00000000 NULL
P        2.64276477       0.22794000       3.21495038       0.00000000 NULL
P        0.95641394       4.58515341       7.28762102       0.00000000 NULL
P       -1.14473392      -0.63723807       6.79849151       0.00000000 NULL
P        0.93171210       6.48155879       3.73223942       0.00000000 NULL
P       -0.69950479       3.78890857       8.17269997       0.00000000 NULL
P        1.10979220       1.60123406       1.13415697       0.00000000 NULL
13
Lattice="4.1499911184342855 0.025913938982280053 -0.04480298354784519 -0.514661302007354 8.762780480581096 0.07625216501381604 -1.926975319033364 -2.6498539340005602 8.277685795337167" Properties=species:S:1:pos:R:3:initial_magmoms:R:1:castep_labels:S:1 n_minim_iter=3 pbc="T T T"
P        0.31801690       4.57280173       0.58528840       0.00000000 NULL
P        0.68700237       4.98506810       2.53006856       0.00000000 NULL
P        0.09641845       8.37601812       1.15518491       0.00000000 NULL
P        1.48020710      -0.25030271       5.35423543       0.00000000 NULL
P        2.54426069       4.90012334       5.13863529       0.00000000 NULL
P        0.26784955      -1.80938770       6.02958907       0.00000000 NULL
P        0.88265021       2.46290123       7.43833079       0.00000000 NULL
P        2.63817371       0.26730960       3.18861849       0.00000000 NULL
P        0.92571739       4.68839469       7.31028420       0.00000000 NULL
P       -1.23304257      -0.59328445       6.81591701       0.00000000 NULL
P        0.94793041       6.57094463       3.77622595       0.00000000 NULL
P       -0.77407932       3.87812329       8.21498906       0.00000000 NULL
P        1.12306860       1.63018182       1.13240444       0.00000000 NULL
13
Lattice="4.157167221070666 0.044817278171343934 -0.07694105489780574 -0.47555506744355563 8.707258510137915 0.14769959253594536 -2.007377386614302 -2.577995171084072 8.206815678401254" Properties=species:S:1:pos:R:3:initial_magmoms:R:1:castep_labels:S:1 n_minim_iter=4 pbc="T T T"
P        0.33515550       4.55067526       0.60838153       0.00000000 NULL
P        0.69039029       4.97254193       2.54717146       0.00000000 NULL
P        0.12309206       8.33163746       1.21222949       0.00000000 NULL
P        1.43964312      -0.19386478       5.29106168       0.00000000 NULL
P        2.52780001       4.92835737       5.11675498       0.00000000 NULL
P        0.20909868      -1.75853277       5.96421216       0.00000000 NULL
P        0.83547581       2.50859866       7.39079874       0.00000000 NULL
P        2.61524132       0.29944034       3.14400899       0.00000000 NULL
P        0.89726228       4.72457617       7.27840328       0.00000000 NULL
P       -1.28890740      -0.54031927       6.77628634       0.00000000 NULL
P        0.95583707       6.56740403       3.79191110       0.00000000 NULL
P       -0.82335801       3.91558819       8.18972316       0.00000000 NULL
P        1.12607869       1.63399403       1.12453285       0.00000000 NULL
13
Lattice="4.1940339081780005 0.08464555677304993 -0.13361148660606248 -0.3961453810783668 8.629183218451153 0.3109535325421918 -2.164020839155728 -2.425049272797939 8.10314433307107" Properties=species:S:1:pos:R:3:initial_magmoms:R:1:castep_labels:S:1 n_minim_iter=5 pbc="T T T"
P        0.37547501       4.52371743       0.66733835       0.00000000 NULL
P        0.70679040       4.97165594       2.61166611       0.00000000 NULL
P        0.18137879       8.27524533       1.35391064       0.00000000 NULL
P        1.37449324      -0.06705459       5.19527895       0.00000000 NULL
P        2.51918991       5.01985411       5.11996970       0.00000000 NULL
P        0.10219287      -1.65056365       5.86383595       0.00000000 NULL
P        0.75951600       2.62626226       7.34514023       0.00000000 NULL
P        2.58821605       0.37285641       3.07792077       0.00000000 NULL
P        0.86275075       4.83443563       7.26909370       0.00000000 NULL
P       -1.39143905      -0.41936280       6.73684382       0.00000000 NULL
P        0.98994075       6.59523239       3.86290891       0.00000000 NULL
P       -0.90763224       4.02639774       8.19550124       0.00000000 NULL
P        1.14265218       1.65117192       1.12093384       0.00000000 NULL
13
Lattice="4.2632830045354995 0.14941641312063228 -0.1698431668463049 -0.2682808957129092 8.448508361586033 0.5873024460311012 -2.3099227520587755 -2.142105146801393 7.9157277027340065" Properties=species:S:1:pos:R:3:initial_magmoms:R:1:castep_labels:S:1 n_minim_iter=6 pbc="T T T"
P        0.45533218       4.44886019       0.77560501       0.00000000 NULL
P        0.76504475       4.94556606       2.74552318       0.00000000 NULL
P        0.28749339       8.12932134       1.60474749       0.00000000 NULL
P        1.33677228       0.15075555       5.06394758       0.00000000 NULL
P        2.57585676       5.15795120       5.18047620       0.00000000 NULL
P        0.00631849      -1.45064819       5.70763966       0.00000000 NULL
P        0.73174141       2.81498589       7.29412419       0.00000000 NULL
P        2.58895197       0.49512885       3.00849304       0.00000000 NULL
P        0.90933450       5.00296377       7.28658900       0.00000000 NULL
P       -1.45611576      -0.20073549       6.67077474       0.00000000 NULL
P        1.10784413       6.60685163       4.00818189       0.00000000 NULL
P       -0.92827918       4.20671487       8.21633528       0.00000000 NULL
P        1.19189372       1.67003922       1.13547375       0.00000000 NULL
13
Lattice="4.40807227629091 0.2575963940441957 -0.1264913582993609 -0.05872053352373679 8.416539937402966 0.9237763375941542 -2.3566837175787536 -1.858288718181932 7.499594542988821" Properties=species:S:1:pos:R:3:initial_magmoms:R:1:castep_labels:S:1 n_minim_iter=7 pbc="T T T"
P        0.61126425       4.45079133       0.91548684       0.00000000 NULL
P        0.92506427       5.03013961       2.88743613       0.00000000 NULL
P        0.48581802       8.12044947       1.90042616       0.00000000 NULL
P        1.41883111       0.42819400       4.85085972       0.00000000 NULL
P        2.81874422       5.47169749       5.23427779       0.00000000 NULL
P       -0.00199854      -1.24365689       5.40882373       0.00000000 NULL
P        0.86788863       3.09936351       7.11171920       0.00000000 NULL
P        2.68989293       0.66163078       2.92103019       0.00000000 NULL
P        1.17578681       5.33881967       7.20650509       0.00000000 NULL
P       -1.39782895       0.06387232       6.43684577       0.00000000 NULL
P        1.41221423       6.77951619       4.13901336       0.00000000 NULL
P       -0.74684999       4.53478862       8.09676356       0.00000000 NULL
P        1.31515472       1.73597626       1.16713073       0.00000000 NULL
13
Lattice="4.290362566985401 0.18140139127434385 -0.08437479291937525 -0.2041623365271951 7.942056083043434 1.0191628900337844 -2.170176348964418 -1.5789270121800332 7.1772249398654715" Properties=species:S:1:pos:R:3:initial_magmoms:R:1:castep_labels:S:1 n_minim_iter=8 pbc="T T T"
P        0.52795300       4.19065270       0.94049053       0.00000000 NULL
P        0.83271725       4.77393795       2.88216340       0.00000000 NULL
P        0.32927972       7.66613610       1.96182590       0.00000000 NULL
P        1.42910863       0.48643348       4.68853882       0.00000000 NULL
P        2.70243147       5.23098822       5.16340718       0.00000000 NULL
P        0.08244158      -1.08545202       5.17660675       0.00000000 NULL
P        0.86873515       3.03398896       6.89649350       0.00000000 NULL
P        2.63601345       0.62892305       2.84236193       0.00000000 NULL
P        1.14663529       5.15325215       7.02437147       0.00000000 NULL
P       -1.27909414       0.20295251       6.19197487       0.00000000 NULL
P        1.32063796       6.44861138       4.08915860       0.00000000 NULL
P       -0.70699901       4.44013611       7.88156444       0.00000000 NULL
P        1.27092309       1.62666421       1.16800593       0.00000000 NULL
13
Lattice="4.429465309277675 0.2084333400143898 -0.0784663911996534 -0.16592454539416066 8.297156092514808 1.0889765028117575 -2.236929212565556 -1.6342754536841126 7.382378078665418" Properties=species:S:1:pos:R:3:initial_magmoms:R:1:castep_labels:S:1 n_minim_iter=9 pbc="T T T"
P        0.56795241       4.37672403       0.98761704       0.00000000 NULL
P        0.88859800       4.99763282       2.99635756       0.00000000 NULL
P        0.38002769       8.01026982       2.05896592       0.00000000 NULL
P        1.48481354       0.53517697       4.83592578       0.00000000 NULL
P        2.82795304       5.49362727       5.35158689       0.00000000 NULL
P        0.08477671      -1.11930090       5.32555668       0.00000000 NULL
P        0.92253598       3.19224912       7.11840089       0.00000000 NULL
P        2.73019154       0.67752776       2.93511874       0.00000000 NULL
P        1.22709000       5.41443692       7.26321360       0.00000000 NULL
P       -1.30873696       0.22914256       6.37857530       0.00000000 NULL
P        1.40679419       6.75731264       4.24550817       0.00000000 NULL
P       -0.69175208       4.66494552       8.14421439       0.00000000 NULL
P        1.32592738       1.71146313       1.21684458       0.00000000 NULL
13
Lattice="4.420216247616564 0.21167235871952372 -0.07606418739560276 -0.15778554994057584 8.284903336215153 1.0962385470200342 -2.2301440029681148 -1.6248248372126701 7.344967713039179" Properties=species:S:1:pos:R:3:initial_magmoms:R:1:castep_labels:S:1 n_minim_iter=10 pbc="T T T"
P        0.57052578       4.36978740       0.98850224       0.00000000 NULL
P        0.89137673       4.99312358       2.99094175       0.00000000 NULL
P        0.38509856       7.99860430       2.06148638       0.00000000 NULL
P        1.48472862       0.54358599       4.81551636       0.00000000 NULL
P        2.82889908       5.49559304       5.33794866       0.00000000 NULL
P        0.08478676      -1.11286953       5.29779968       0.00000000 NULL
P        0.92641438       3.19569806       7.08999463       0.00000000 NULL
P        2.72557575       0.68077532       2.92342074       0.00000000 NULL
P        1.23452705       5.41617601       7.23718782       0.00000000 NULL
P       -1.30263205       0.23507210       6.34842603       0.00000000 NULL
P        1.41403613       6.75354281       4.23476150       0.00000000 NULL
P       -0.68188559       4.66809364       8.11612188       0.00000000 NULL
P        1.32669142       1.71036958       1.21544072       0.00000000 NULL
13
Lattice="4.41973672027745 0.2150236730548598 -0.07152441875281093 -0.15061208379090474 8.287634006540788 1.1099211754007723 -2.2229617370264565 -1.6136607251704176 7.317004355283414" Properties=species:S:1:pos:R:3:initial_magmoms:R:1:castep_labels:S:1 n_minim_iter=11 pbc="T T T"
P        0.57407371       4.37030164       0.99320547       0.00000000 NULL
P        0.89663701       4.99880232       2.99385304       0.00000000 NULL
P        0.39014394       8.00150765       2.07201520       0.00000000 NULL
P        1.49039217       0.55664945       4.80390721       0.00000000 NULL
P        2.83813757       5.51069604       5.33773504       0.00000000 NULL
P        0.08811141      -1.10581157       5.27710061       0.00000000 NULL
P        0.93585926       3.20856149       7.07456256       0.00000000 NULL
P        2.72813183       0.68643947       2.91786211       0.00000000 NULL
P        1.24876188       5.43195851       7.22591007       0.00000000 NULL
P       -1.29511896       0.24538049       6.32761395       0.00000000 NULL
P        1.42622183       6.76431312       4.23456019       0.00000000 NULL
P       -0.66898633       4.68473584       8.10405646       0.00000000 NULL
P        1.33104688       1.71274644       1.21807284       0.00000000 NULL
13
Lattice="4.4247991298861225 0.21837118729151223 -0.060579760472347206 -0.14420735426734477 8.293259595945043 1.1393393691536058 -2.2052759501294847 -1.587572070436345 7.275199422342835" Properties=species:S:1:pos:R:3:initial_magmoms:R:1:castep_labels:S:1 n_minim_iter=12 pbc="T T T"
P        0.57829951       4.37096661       1.00473806       0.00000000 NULL
P        0.90532024       5.01028245       3.00620433       0.00000000 NULL
P        0.39396199       8.00755331       2.09738176       0.00000000 NULL
P        1.50614092       0.58306912       4.79144738       0.00000000 NULL
P        2.85891625       5.54004630       5.34956423       0.00000000 NULL
P        0.09972153      -1.09029104       5.24644372       0.00000000 NULL
P        0.95746022       3.23547789       7.05859963       0.00000000 NULL
P        2.73859539       0.69650710       2.91390121       0.00000000 NULL
P        1.27826488       5.46438053       7.21880239       0.00000000 NULL
P       -1.27804114       0.26871002       6.29845238       0.00000000 NULL
P        1.44827059       6.78577799       4.24326001       0.00000000 NULL
P       -0.64378826       4.72044015       8.09640060       0.00000000 NULL
P        1.34058815       1.71669067       1.22653854       0.00000000 NULL
13
Lattice="4.433826784244861 0.2160507286630358 -0.03979592725196925 -0.15036782828862044 8.279338658271733 1.1913103875318907 -2.165754746629773 -1.5299719449926248 7.218667135339497" Properties=species:S:1:pos:R:3:initial_magmoms:R:1:castep_labels:S:1 n_minim_iter=13 pbc="T T T"
P        0.57703037       4.35885127       1.02640967       0.00000000 NULL
P        0.91213900       5.01584859       3.03356052       0.00000000 NULL
P        0.38503648       7.99564453       2.14484537       0.00000000 NULL
P        1.53578123       0.62730843       4.78195963       0.00000000 NULL
P        2.88832990       5.57259588       5.38261154       0.00000000 NULL
P        0.12707067      -1.05727046       5.20511754       0.00000000 NULL
P        0.99388644       3.27521930       7.04709948       0.00000000 NULL
P        2.75852750       0.70896555       2.91453367       0.00000000 NULL
P        1.32328144       5.50578318       7.22279553       0.00000000 NULL
P       -1.24466130       0.31355071       6.26149727       0.00000000 NULL
P        1.47459062       6.80260738       4.26718307       0.00000000 NULL
P       -0.60486618       4.77317324       8.10072731       0.00000000 NULL
P        1.35430035       1.71652956       1.24437427       0.00000000 NULL
13
Lattice="4.454932156440054 0.2079506497997581 -0.000410503343345342 -0.17044379832497875 8.2616818193953 1.3088454823213158 -2.0901914399536867 -1.4035969892574502 7.148146125125019" Properties=species:S:1:pos:R:3:initial_magmoms:R:1:castep_labels:S:1 n_minim_iter=14 pbc="T T T"
P        0.56930510       4.33914498       1.07870224       0.00000000 NULL
P        0.92122235       5.03617799       3.10737092       0.00000000 NULL
P        0.35956774       7.98425253       2.25817410       0.00000000 NULL
P        1.59360379       0.72432191       4.79365580       0.00000000 NULL
P        2.94413764       5.64909414       5.48360690       0.00000000 NULL
P        0.18109884      -0.98432649       5.15099732       0.00000000 NULL
P        1.06259619       3.36850198       7.06852548       0.00000000 NULL
P        2.79992765       0.73710647       2.93125366       0.00000000 NULL
P        1.40660366       5.60288678       7.27803380       0.00000000 NULL
P       -1.18392959       0.41235698       6.22479121       0.00000000 NULL
P        1.51927648       6.84747009       4.34427819       0.00000000 NULL
P       -0.53736666       4.89556198       8.16326041       0.00000000 NULL
P        1.38157399       1.71878612       1.28860796       0.00000000 NULL
13
Lattice="4.4230734608775375 0.200998961805122 0.018445712393736283 -0.1808144384273984 8.187422531054283 1.365306901317799 -2.0336042742582707 -1.3211274884498965 7.074997279058293" Properties=species:S:1:pos:R:3:initial_magmoms:R:1:castep_labels:S:1 n_minim_iter=15 pbc="T T T"
P        0.55733427       4.29393735       1.10116581       0.00000000 NULL
P        0.91548722       5.00814521       3.12736261       0.00000000 NULL
P        0.34115560       7.91792912       2.30725044       0.00000000 NULL
P        1.60723852       0.77482685       4.77721183       0.00000000 NULL
P        2.94362005       5.64790211       5.50847522       0.00000000 NULL
P        0.20618846      -0.93441110       5.09421034       0.00000000 NULL
P        1.08599371       3.39625374       7.04478501       0.00000000 NULL
P        2.79348913       0.74719352       2.92333008       0.00000000 NULL
P        1.43312552       5.61210807       7.27045263       0.00000000 NULL
P       -1.14585543       0.46202605       6.17276967       0.00000000 NULL
P        1.52503039       6.81790596       4.36151850       0.00000000 NULL
P       -0.50416923       4.92549844       8.15842417       0.00000000 NULL
P        1.38292314       1.70587081       1.30526904       0.00000000 NULL
13
Lattice="4.448821664113092 0.20224058772686884 0.02396547633320666 -0.18171528777620316 8.240044172871485 1.3874622527609013 -2.034562277331915 -1.3161514896879913 7.113383198097017" Properties=species:S:1:pos:R:3:initial_magmoms:R:1:castep_labels:S:1 n_minim_iter=16 pbc="T T T"
P        0.56043496       4.31978305       1.11437203       0.00000000 NULL
P        0.92348658       5.04389887       3.15580317       0.00000000 NULL
P        0.34249833       7.97000210       2.33514986       0.00000000 NULL
P        1.62335081       0.79208935       4.81120767       0.00000000 NULL
P        2.96905410       5.69430321       5.55654372       0.00000000 NULL
P        0.21437138      -0.93226635       5.12145467       0.00000000 NULL
P        1.10183327       3.42936239       7.09380640       0.00000000 NULL
P        2.81434171       0.75619235       2.94492683       0.00000000 NULL
P        1.45314460       5.66055122       7.32540275       0.00000000 NULL
P       -1.14400223       0.47551324       6.20923439       0.00000000 NULL
P        1.54006473       6.86834413       4.39896284       0.00000000 NULL
P       -0.49704449       4.97198633       8.22000946       0.00000000 NULL
P        1.39436972       1.71825899       1.31944673       0.00000000 NULL
13
Lattice="4.445842497913083 0.20119018120072663 0.02778587214895507 -0.18353413075522707 8.233161371955196 1.397752631021322 -2.024855559511576 -1.303227545030117 7.107257225934494" Properties=species:S:1:pos:R:3:initial_magmoms:R:1:castep_labels:S:1 n_minim_iter=17 pbc="T T T"
P        0.55872539       4.31486211       1.11897724       0.00000000 NULL
P        0.92349214       5.04253551       3.16155788       0.00000000 NULL
P        0.33976391       7.96450845       2.34513954       0.00000000 NULL
P        1.62734456       0.80145105       4.81317956       0.00000000 NULL
P        2.97168699       5.69797193       5.56583539       0.00000000 NULL
P        0.21969906      -0.92450806       5.11636209       0.00000000 NULL
P        1.10750926       3.43633688       7.09617136       0.00000000 NULL
P        2.81531791       0.75842472       2.94661671       0.00000000 NULL
P        1.45955291       5.66581667       7.33071538       0.00000000 NULL
P       -1.13732732       0.48380697       6.20582538       0.00000000 NULL
P        1.54236891       6.86788668       4.40547969       0.00000000 NULL
P       -0.49081349       4.98036989       8.22674357       0.00000000 NULL
P        1.39571009       1.71727174       1.32362275       0.00000000 NULL
13
Lattice="4.444380331222229 0.1999602045205387 0.03362854283798037 -0.18594203660255187 8.22938735111221 1.4146600752368075 -2.011613654189285 -1.2846133748517892 7.103299934153922" Properties=species:S:1:pos:R:3:initial_magmoms:R:1:castep_labels:S:1 n_minim_iter=18 pbc="T T T"
P        0.55674928       4.31083501       1.12691021       0.00000000 NULL
P        0.92443579       5.04463094       3.17278737       0.00000000 NULL
P        0.33628053       7.96270903       2.36229017       0.00000000 NULL
P        1.63453285       0.81657166       4.81990346       0.00000000 NULL
P        2.97812954       5.70835804       5.58429531       0.00000000 NULL
P        0.22785845      -0.91337384       5.11242971       0.00000000 NULL
P        1.11703652       3.44984297       7.10519664       0.00000000 NULL
P        2.81881391       0.76265262       2.95144286       0.00000000 NULL
P        1.47059282       5.67860355       7.34453851       0.00000000 NULL
P       -1.12800545       0.49682104       6.20537957       0.00000000 NULL
P        1.54726781       6.87285626       4.41887521       0.00000000 NULL
P       -0.48149901       4.99729607       8.24343389       0.00000000 NULL
P        1.39885888       1.71731953       1.33105370       0.00000000 NULL
13
Lattice="4.427229648196652 0.18741739970960755 0.10101888718376825 -0.21018941450487222 8.189714513387552 1.6159529505544983 -1.8598299166488612 -1.0659174511182488 7.07112237099628" Properties=species:S:1:pos:R:3:initial_magmoms:R:1:castep_labels:S:1 n_minim_iter=19 pbc="T T T"
P        0.53504299       4.26513041       1.22078095       0.00000000 NULL
P        0.93718018       5.07265675       3.30874280       0.00000000 NULL
P        0.29895482       7.94785975       2.56767013       0.00000000 NULL
P        1.71771130       0.99783793       4.90973307       0.00000000 NULL
P        3.05579947       5.83653942       5.81189443       0.00000000 NULL
P        0.32077179      -0.78254586       5.07425390       0.00000000 NULL
P        1.22781527       3.61240174       7.22460844       0.00000000 NULL
P        2.85887661       0.81479822       3.01283951       0.00000000 NULL
P        1.59994674       5.83330534       7.52145400       0.00000000 NULL
P       -1.02192342       0.64906297       6.21139583       0.00000000 NULL
P        1.60599401       6.93467925       4.58399230       0.00000000 NULL
P       -0.37327481       5.20232166       8.45788241       0.00000000 NULL
P        1.43758887       1.72042628       1.42085261       0.00000000 NULL
13
Lattice="4.404702592746214 0.18461768605753634 0.07389171393168849 -0.21303517056090251 8.018529349661561 1.6058100004667686 -1.9028878973066181 -1.0249447545074364 7.270904554869722" Properties=species:S:1:pos:R:3:initial_magmoms:R:1:castep_labels:S:1 n_minim_iter=20 pbc="T T T"
P        0.51838539       4.14571084       1.20432956       0.00000000 NULL
P        0.90646041       4.96170268       3.33781379       0.00000000 NULL
P        0.26774853       7.79892780       2.58227529       0.00000000 NULL
P        1.67733327       1.03624229       5.03572066       0.00000000 NULL
P        3.02888609       5.75167234       5.91478263       0.00000000 NULL
P        0.28013308      -0.76342386       5.17045660       0.00000000 NULL
P        1.17500552       3.55723625       7.37583777       0.00000000 NULL
P        2.82066093       0.80151110       3.06770178       0.00000000 NULL
P        1.56030475       5.72993528       7.66536139       0.00000000 NULL
P       -1.08073806       0.61706612       6.35848880       0.00000000 NULL
P        1.59120606       6.80017045       4.61435880       0.00000000 NULL
P       -0.46447479       5.12343506       8.70966101       0.00000000 NULL
P        1.45041619       1.67803817       1.45666334       0.00000000 NULL
13
Lattice="4.395418792023309 0.22581700723709186 0.1381608371608371 -0.1243831633889915 8.192316885433405 1.6578970530872064 -1.796027961429172 -1.0404023507303328 7.125272744893738" Properties=species:S:1:pos:R:3:initial_magmoms:R:1:castep_labels:S:1 n_minim_iter=21 pbc="T T T"
P        0.56620203       4.23418559       1.23166025       0.00000000 NULL
P        0.99201049       5.08118211       3.34482519       0.00000000 NULL
P        0.36057385       7.97740354       2.62370609       0.00000000 NULL
P        1.75838065       1.09540933       4.99216117       0.00000000 NULL
P        3.15828994       5.92084593       5.93061695       0.00000000 NULL
P        0.34926072      -0.76221015       5.08373562       0.00000000 NULL
P        1.31003389       3.66351660       7.31557309       0.00000000 NULL
P        2.86492338       0.85654808       3.07768195       0.00000000 NULL
P        1.72188861       5.88915747       7.62659749       0.00000000 NULL
P       -0.97906832       0.63256956       6.25229947       0.00000000 NULL
P        1.71553792       6.97186976       4.63139037       0.00000000 NULL
P       -0.29519080       5.25939154       8.63926733       0.00000000 NULL
P        1.49187721       1.73126745       1.47869848       0.00000000 NULL
13
Lattice="4.376975464372284 0.1960128020322397 0.11764677063326226 -0.1850620178733879 8.072692862542604 1.6420177475421724 -1.8098513060130899 -1.0069536449476988 7.157877920001408" Properties=species:S:1:pos:R:3:initial_magmoms:R:1:castep_labels:S:1 n_minim_iter=22 pbc="T T T"
P        0.53096796       4.16619767       1.22070250       0.00000000 NULL
P        0.94050489       5.00146418       3.33569721       0.00000000 NULL
P        0.29465611       7.86342042       2.61034903       0.00000000 NULL
P        1.72342370       1.07654117       4.99652587       0.00000000 NULL
P        3.08754721       5.82185912       5.91912317       0.00000000 NULL
P        0.33442779      -0.74899607       5.09484973       0.00000000 NULL
P        1.25286605       3.60943262       7.32195346       0.00000000 NULL
P        2.83652209       0.82898649       3.07200095       0.00000000 NULL
P        1.64715113       5.79857235       7.62624137       0.00000000 NULL
P       -1.00633307       0.63108487       6.27334648       0.00000000 NULL
P        1.64776881       6.86320506       4.61739409       0.00000000 NULL
P       -0.36670718       5.19107219       8.65832187       0.00000000 NULL
P        1.47144947       1.69626071       1.47331955       0.00000000 NULL
13
Lattice="4.393969419269075 0.19671110479499862 0.11890550269548764 -0.18591358232579988 8.113002747608705 1.6582662930851684 -1.8152180572468046 -1.0040967292945515 7.195592648383065" Properties=species:S:1:pos:R:3:initial_magmoms:R:1:castep_labels:S:1 n_minim_iter=23 pbc="T T T"
P        0.53291413       4.18510988       1.23027410       0.00000000 NULL
P        0.94397131       5.02764051       3.35761993       0.00000000 NULL
P        0.29417390       7.90543555       2.63181185       0.00000000 NULL
P        1.73057862       1.08924015       5.02470323       0.00000000 NULL
P        3.10216520       5.85642458       5.95710405       0.00000000 NULL
P        0.33679684      -0.74778476       5.11932643       0.00000000 NULL
P        1.25882486       3.63393217       7.36428067       0.00000000 NULL
P        2.84850731       0.83672762       3.09087418       0.00000000 NULL
P        1.65556400       5.83437627       7.67277090       0.00000000 NULL
P       -1.01001490       0.63846891       6.30758897       0.00000000 NULL
P        1.65625402       6.90069194       4.64759873       0.00000000 NULL
P       -0.36855153       5.22554103       8.71368805       0.00000000 NULL
P        1.47978725       1.70583602       1.48464086       0.00000000 NULL
13
Lattice="4.385699873921478 0.1959642857070577 0.11814877859688189 -0.18636241203668272 8.099225562837878 1.6586007588040526 -1.8126312583243553 -0.9992666048731967 7.188657155389479" Properties=species:S:1:pos:R:3:initial_magmoms:R:1:castep_labels:S:1 n_minim_iter=24 pbc="T T T"
P        0.53130495       4.17682981       1.22947509       0.00000000 NULL
P        0.94102637       5.01917450       3.35465648       0.00000000 NULL
P        0.29183262       7.89372452       2.63123266       0.00000000 NULL
P        1.72645707       1.09051495       5.01959690       0.00000000 NULL
P        3.09603339       5.84880583       5.95253887       0.00000000 NULL
P        0.33561370      -0.74473675       5.11251162       0.00000000 NULL
P        1.25527970       3.63044710       7.35763822       0.00000000 NULL
P        2.84265231       0.83660710       3.08842900       0.00000000 NULL
P        1.65148356       5.82679892       7.66604448       0.00000000 NULL
P       -1.00983805       0.63805690       6.30132881       0.00000000 NULL
P        1.65329762       6.89018389       4.64379662       0.00000000 NULL
P       -0.37081770       5.22000094       8.70903577       0.00000000 NULL
P        1.47826515       1.70295376       1.48433317       0.00000000 NULL
13
Lattice="4.38377242050542 0.19568031786870502 0.11837422300211987 -0.1867001071502797 8.098390557859677 1.6615840556473107 -1.8111451641566527 -0.9960030407851472 7.192292405621942" Properties=species:S:1:pos:R:3:initial_magmoms:R:1:castep_labels:S:1 n_minim_iter=25 pbc="T T T"
P        0.53078288       4.17515317       1.23069955       0.00000000 NULL
P        0.94014529       5.01876219       3.35712395       0.00000000 NULL
P        0.29039712       7.89464036       2.63481857       0.00000000 NULL
P        1.72579539       1.09373836       5.02246631       0.00000000 NULL
P        3.09573729       5.85061795       5.95766117       0.00000000 NULL
P        0.33594341      -0.74281427       5.11346723       0.00000000 NULL
P        1.25502064       3.63276857       7.36234924       0.00000000 NULL
P        2.84165997       0.83802038       3.09125317       0.00000000 NULL
P        1.65143521       5.82872396       7.67141927       0.00000000 NULL
P       -1.00974265       0.63874376       6.30454415       0.00000000 NULL
P        1.65366698       6.89075180       4.64743352       0.00000000 NULL
P       -0.37174425       5.22293772       8.71768409       0.00000000 NULL
P        1.47923567       1.70297270       1.48665331       0.00000000 NULL
13
Lattice="4.340075333128362 0.19056498319603443 0.1245653403829756 -0.19155119249317903 8.077587164677123 1.7202917694437936 -1.7761390055459259 -0.9304290619030522 7.27226986974591" Properties=species:S:1:pos:R:3:initial_magmoms:R:1:castep_labels:S:1 n_minim_iter=26 pbc="T T T"
P        0.52088444       4.13687297       1.25411594       0.00000000 NULL
P        0.92267970       5.00633958       3.40724989       0.00000000 NULL
P        0.26163931       7.91219469       2.70701449       0.00000000 NULL
P        1.71223043       1.16065512       5.08477158       0.00000000 NULL
P        3.09113318       5.88547298       6.06630143       0.00000000 NULL
P        0.34413666      -0.70458078       5.13450279       0.00000000 NULL
P        1.25168370       3.67778466       7.46296769       0.00000000 NULL
P        2.82024713       0.86772661       3.15415146       0.00000000 NULL
P        1.65326071       5.86434418       7.78465058       0.00000000 NULL
P       -1.00523878       0.64785217       6.37377422       0.00000000 NULL
P        1.66410971       6.89888139       4.72209539       0.00000000 NULL
P       -0.38793526       5.28035150       8.90381403       0.00000000 NULL
P        1.50089803       1.70275912       1.53718628       0.00000000 NULL
