8
Lattice="2.3786699999999996 -6.282587242198739e-16 -6.759226689501401e-16 -0.6330365559750678 8.533973387303197 -3.0451645634728697e-16 -0.633036555975068 -0.8931674090405127 8.487105145727083" Properties=species:S:1:pos:R:3:initial_magmoms:R:1:castep_labels:S:1 n_minim_iter=1 pbc="T T T"
P        1.61451735       1.93679534       0.47565472       0.00000000 NULL
P       -0.50192046       7.37046893       6.51116448       0.00000000 NULL
P       -0.10065880       2.84387854       6.88497648       0.00000000 NULL
P        1.21325569       1.09128242       4.93826201       0.00000000 NULL
P        1.81393142       3.88368137       2.34968307       0.00000000 NULL
P       -0.70133453       5.71049416       4.37883448       0.00000000 NULL
P        1.49264690       5.99605497       0.35667569       0.00000000 NULL
P       -0.38005001       7.91363748       2.48665051       0.00000000 NULL
8
Lattice="2.3796119710786314 -0.0005693239833700772 -0.0006323825683562935 -0.63532981138682 8.518149315465863 -0.003764111304914097 -0.6353298113868201 -0.8952546973847794 8.470974026398382" Properties=species:S:1:pos:R:3:initial_magmoms:R:1:castep_labels:S:1 n_minim_iter=2 pbc="T T T"
P        1.61457431       1.93272219       0.47343854       0.00000000 NULL
P       -0.50562196       7.35376595       6.49491959       0.00000000 NULL
P       -0.10320312       2.83530490       6.87011947       0.00000000 NULL
P        1.21215547       1.08667983       4.92781589       0.00000000 NULL
P        1.81303463       3.87493561       2.34269941       0.00000000 NULL
P       -0.70408228       5.69804344       4.36773550       0.00000000 NULL
P        1.49175797       5.98427944       0.35295018       0.00000000 NULL
P       -0.38280562       7.89762941       2.47822367       0.00000000 NULL
8
Lattice="2.474206965449463 -0.053027168160012114 -0.05890048157674904 -0.8487078485284811 7.084116092477278 -0.30999881124541284 -0.848707848528482 -1.0497213566518095 7.012765870044303" Properties=species:S:1:pos:R:3:initial_magmoms:R:1:castep_labels:S:1 n_minim_iter=3 pbc="T T T"
P        1.62471050       1.56343218       0.27920263       0.00000000 NULL
P       -0.84791923       5.86732743       5.05979929       0.00000000 NULL
P       -0.33764187       2.08710546       5.54147232       0.00000000 NULL
P        1.11443314       0.68876567       3.98825177       0.00000000 NULL
P        1.73569054       3.09122156       1.72747822       0.00000000 NULL
P       -0.95889927       4.58690447       3.38882366       0.00000000 NULL
P        1.41516666       4.91750704       0.03822030       0.00000000 NULL
P       -0.63837539       6.45802446       1.74936614       0.00000000 NULL
8
Lattice="2.4021781075023276 -0.07094763594161907 -0.07880582857231494 -0.8938321806008512 7.4194086975985245 0.16599034581727246 -0.8938321806008522 -0.6114381060390034 7.3960341845740984" Properties=species:S:1:pos:R:3:initial_magmoms:R:1:castep_labels:S:1 n_minim_iter=4 pbc="T T T"
P        1.55591534       1.64912524       0.39464337       0.00000000 NULL
P       -0.94140159       6.51714473       5.80184693       0.00000000 NULL
P       -0.41172275       2.57691746       6.04460780       0.00000000 NULL
P        1.02623650       0.99531260       4.28782367       0.00000000 NULL
P        1.62897746       3.35868795       2.04237031       0.00000000 NULL
P       -1.01446371       5.05739023       3.92922163       0.00000000 NULL
P        1.32579600       5.15833454       0.37651550       0.00000000 NULL
P       -0.71128225       6.90244761       2.31380733       0.00000000 NULL
8
Lattice="2.444601243441742 -0.09829569544491187 -0.10918297166381137 -1.0032391213972798 7.293760707396403 0.1810503617259805 -1.0032391213972809 -0.5833104546532333 7.272652432485212" Properties=species:S:1:pos:R:3:initial_magmoms:R:1:castep_labels:S:1 n_minim_iter=5 pbc="T T T"
P        1.55447168       1.60193159       0.36931126       0.00000000 NULL
P       -1.11634868       6.41253002       5.71273378       0.00000000 NULL
P       -0.53380934       2.53917039       5.94182741       0.00000000 NULL
P        0.97193234       0.96870952       4.19742157       0.00000000 NULL
P        1.58331601       3.27891617       1.98338884       0.00000000 NULL
P       -1.14519301       4.98283045       3.87602944       0.00000000 NULL
P        1.28190029       5.04823056       0.35976947       0.00000000 NULL
P       -0.84377729       6.78270977       2.28636039       0.00000000 NULL
8
Lattice="2.4436600807097344 -0.12216231534608507 -0.13569306930935002 -1.0886151124624595 7.262948886929203 0.2515845556945738 -1.0886151124624608 -0.5099388602015028 7.249391952547925" Properties=species:S:1:pos:R:3:initial_magmoms:R:1:castep_labels:S:1 n_minim_iter=6 pbc="T T T"
P        1.52629624       1.58146158       0.36498239       0.00000000 NULL
P       -1.25986639       6.43338588       5.75430804       0.00000000 NULL
P       -0.63894544       2.57901766       5.94455170       0.00000000 NULL
P        0.90537530       0.98886376       4.17827163       0.00000000 NULL
P        1.51438544       3.26037002       1.98248107       0.00000000 NULL
P       -1.24795558       5.00048534       3.91533235       0.00000000 NULL
P        1.21994023       5.01015668       0.38962315       0.00000000 NULL
P       -0.95351037       6.76772838       2.34186430       0.00000000 NULL
8
Lattice="2.465541662435757 -0.16109215425394977 -0.17893479499342366 -1.2341073624789993 7.255629785040363 0.35724539774366515 -1.2341073624790007 -0.4040922845757607 7.253171532324345" Properties=species:S:1:pos:R:3:initial_magmoms:R:1:castep_labels:S:1 n_minim_iter=7 pbc="T T T"
P        1.49325674       1.55784350       0.35854204       0.00000000 NULL
P       -1.49592980       6.49691662       5.84466916       0.00000000 NULL
P       -0.81181452       2.65151784       5.97873471       0.00000000 NULL
P        0.80914146       1.02205401       4.16879072       0.00000000 NULL
P        1.41896616       3.24605793       1.98711390       0.00000000 NULL
P       -1.42163922       5.05397768       3.99527967       0.00000000 NULL
P        1.13434779       4.97787856       0.43442633       0.00000000 NULL
P       -1.13702084       6.77939065       2.43547473       0.00000000 NULL
