18
Lattice="5.466440000000003 2.7673924380905003e-17 0.0 -2.7332200000000015 4.734075908263408 0.0 0.0 0.0 15.641699999999998" Properties=species:S:1:pos:R:3:initial_magmoms:R:1:castep_labels:S:1 n_minim_iter=1 pbc="T T T"
P       -2.26263249       4.32024335      15.16880292       0.00000000 NULL
P        0.12309548       0.61445749       4.74100292       0.00000000 NULL
P        2.13953619       4.53345145       9.95490292       0.00000000 NULL
P        3.18656909       2.32212720       1.86506625       0.00000000 NULL
P        1.86213404       1.59858666       7.07896625       0.00000000 NULL
P        3.15095606       0.81336252      12.29286625       0.00000000 NULL
P        1.62553832       2.50159649      10.51634506       0.00000000 NULL
P        2.48722446       0.15695971       0.08854506       0.00000000 NULL
P        4.08689640       2.07552018       5.30244506       0.00000000 NULL
P        0.41007948       0.22981998       6.74576311       0.00000000 NULL
P        5.06237005       0.24022973      11.95966311       0.00000000 NULL
P        2.72720966       4.26402667       1.53186311       0.00000000 NULL
P        2.78788686       1.32068646       9.29119483       0.00000000 NULL
P        2.92874827       1.75403809      14.50509483       0.00000000 NULL
P        2.48302405       1.65935183       4.07729483       0.00000000 NULL
P        3.11922938       2.77278708      11.85542630       0.00000000 NULL
P        1.50552099       1.31493882       1.42762630       0.00000000 NULL
P        3.57490881       0.64635048       6.64152630       0.00000000 NULL
18
Lattice="5.48192758847908 9.741800669714e-16 0.0 -2.740963794239541 4.7474885533296485 0.0 0.0 0.0 15.680602341395586" Properties=species:S:1:pos:R:3:initial_magmoms:R:1:castep_labels:S:1 n_minim_iter=2 pbc="T T T"
P       -2.26909332       4.33241859      15.20627969       0.00000000 NULL
P        0.12352562       0.61618727       4.75254479       0.00000000 NULL
P        2.14556688       4.54637172       9.97941224       0.00000000 NULL
P        3.19597749       2.32863426       1.86998934       0.00000000 NULL
P        1.86728214       1.60348104       7.09685679       0.00000000 NULL
P        3.15963092       0.81537372      12.32372424       0.00000000 NULL
P        1.62976069       2.50869365      10.54234707       0.00000000 NULL
P        2.49445454       0.15706781       0.08861217       0.00000000 NULL
P        4.09867533       2.08172757       5.31547962       0.00000000 NULL
P        0.41120388       0.23015659       6.76274557       0.00000000 NULL
P        5.07700392       0.24103518      11.98961301       0.00000000 NULL
P        2.73468276       4.27629725       1.53587812       0.00000000 NULL
P        2.79587611       1.32428639       9.31410182       0.00000000 NULL
P        2.93712360       1.75915702      14.54096926       0.00000000 NULL
P        2.48989085       1.66404562       4.08723437       0.00000000 NULL
P        3.12830762       2.78091381      11.88502582       0.00000000 NULL
P        1.50943150       1.31873744       1.43129092       0.00000000 NULL
P        3.58515145       0.64783778       6.65815837       0.00000000 NULL
18
Lattice="5.738329772635506 -4.731203442695141e-16 0.0 -2.8691648863177526 4.96953935839493 0.0 0.0 0.0 16.311648461589552" Properties=species:S:1:pos:R:3:initial_magmoms:R:1:castep_labels:S:1 n_minim_iter=3 pbc="T T T"
P       -2.37605289       4.53393594      15.81402891       0.00000000 NULL
P        0.13068734       0.64484972       4.93959661       0.00000000 NULL
P        2.24536469       4.76029355      10.37681276       0.00000000 NULL
P        3.35202361       2.43634261       1.95021318       0.00000000 NULL
P        1.95238309       1.68476679       7.38742933       0.00000000 NULL
P        3.30308710       0.84843045      12.82464549       0.00000000 NULL
P        1.69943479       2.62624343      10.96392507       0.00000000 NULL
P        2.61421856       0.15863248       0.08949277       0.00000000 NULL
P        4.29384044       2.18466394       5.52670892       0.00000000 NULL
P        0.42987435       0.23549573       7.03839032       0.00000000 NULL
P        5.31944703       0.25453474      12.47560647       0.00000000 NULL
P        2.85817243       4.47950939       1.60117417       0.00000000 NULL
P        2.92816533       1.38379531       9.68546532       0.00000000 NULL
P        3.07584492       1.84396840      15.12268148       0.00000000 NULL
P        2.60348354       1.74177614       4.24824917       0.00000000 NULL
P        3.27875235       2.91559134      12.36523338       0.00000000 NULL
P        1.57397714       1.38168765       1.49080107       0.00000000 NULL
P        3.75476431       0.67226086       6.92801722       0.00000000 NULL
18
Lattice="5.799957736476241 2.5602769438579893e-16 0.0 -2.8999788682381205 5.022910740664514 0.0 0.0 0.0 16.27211754230761" Properties=species:S:1:pos:R:3:initial_magmoms:R:1:castep_labels:S:1 n_minim_iter=4 pbc="T T T"
P       -2.40115800       4.58209604      15.77445804       0.00000000 NULL
P        0.13234601       0.65239939       4.92637968       0.00000000 NULL
P        2.26881113       4.81132655      10.35041886       0.00000000 NULL
P        3.39178778       2.46221500       1.94990590       0.00000000 NULL
P        1.97172282       1.70626738       7.37394508       0.00000000 NULL
P        3.33642514       0.85442886      12.79798426       0.00000000 NULL
P        1.71497846       2.65541839      10.93497370       0.00000000 NULL
P        2.64280843       0.15750622       0.08689534       0.00000000 NULL
P        4.34214885       2.20998663       5.51093452       0.00000000 NULL
P        0.43549461       0.23495036       7.02264658       0.00000000 NULL
P        5.37873716       0.25967471      12.44668576       0.00000000 NULL
P        2.88570397       4.52828616       1.59860740       0.00000000 NULL
P        2.95968110       1.39747554       9.65947798       0.00000000 NULL
P        3.10986758       1.86442175      15.08351716       0.00000000 NULL
P        2.63038706       1.76101395       4.23543880       0.00000000 NULL
P        3.31586203       2.94863385      12.33567515       0.00000000 NULL
P        1.58843460       1.39730433       1.48759679       0.00000000 NULL
P        3.79563910       0.67697306       6.91163597       0.00000000 NULL
18
Lattice="5.835369348185664 1.311435010747873e-16 0.0 -2.917684674092832 5.053578095993825 0.0 0.0 0.0 16.111708720206376" Properties=species:S:1:pos:R:3:initial_magmoms:R:1:castep_labels:S:1 n_minim_iter=5 pbc="T T T"
P       -2.41472877       4.60963013      15.61748781       0.00000000 NULL
P        0.13299197       0.65754707       4.87634867       0.00000000 NULL
P        2.28173593       4.83997949      10.24691824       0.00000000 NULL
P        3.41670393       2.47698643       1.93639661       0.00000000 NULL
P        1.98188391       1.72045969       7.30696618       0.00000000 NULL
P        3.35446530       0.85613248      12.67753575       0.00000000 NULL
P        1.72255839       2.67321449      10.82415536       0.00000000 NULL
P        2.65901820       0.15517258       0.08301621       0.00000000 NULL
P        4.37147656       2.22519152       5.45358578       0.00000000 NULL
P        0.43999029       0.23273798       6.95517000       0.00000000 NULL
P        5.41381691       0.26467428      12.32573958       0.00000000 NULL
P        2.89924595       4.55616633       1.58460043       0.00000000 NULL
P        2.97740139       1.40472889       9.56093588       0.00000000 NULL
P        3.13013745       1.87614130      14.93150546       0.00000000 NULL
P        2.64551430       1.77270841       4.19036631       0.00000000 NULL
P        3.33824978       2.96822205      12.21441653       0.00000000 NULL
P        1.59568846       1.40689859       1.47327739       0.00000000 NULL
P        3.81911490       0.67845795       6.84384696       0.00000000 NULL
18
Lattice="5.8773942371494945 3.8064127433660326e-16 0.0 -2.9386971185747472 5.089972717427723 0.0 0.0 0.0 15.756402054441562" Properties=species:S:1:pos:R:3:initial_magmoms:R:1:castep_labels:S:1 n_minim_iter=6 pbc="T T T"
P       -2.42857561       4.64229657      15.26857985       0.00000000 NULL
P        0.13263787       0.66561677       4.76431181       0.00000000 NULL
P        2.29593686       4.87203260      10.01644583       0.00000000 NULL
P        3.45043364       2.49422223       1.90694326       0.00000000 NULL
P        1.99211731       1.74105258       7.15907728       0.00000000 NULL
P        3.37353953       0.85469841      12.41121130       0.00000000 NULL
P        1.72814148       2.69677470      10.57857318       0.00000000 NULL
P        2.67784780       0.14822758       0.07430515       0.00000000 NULL
P        4.41010120       2.24497095       5.32643916       0.00000000 NULL
P        0.44842999       0.22571946       6.80723228       0.00000000 NULL
P        5.45770016       0.27549254      12.05936630       0.00000000 NULL
P        2.90996032       4.58876122       1.55509826       0.00000000 NULL
P        2.99741016       1.41206464       9.34191462       0.00000000 NULL
P        3.15580502       1.88980153      14.59404864       0.00000000 NULL
P        2.66287530       1.78810706       4.08978060       0.00000000 NULL
P        3.36738222       2.99256924      11.94592107       0.00000000 NULL
P        1.60206185       1.41995443       1.44165303       0.00000000 NULL
P        3.84664641       0.67744956       6.69378705       0.00000000 NULL
18
Lattice="5.8834431394573325 -5.923135898910371e-16 0.0 -2.9417215697286654 5.095211220491322 0.0 0.0 0.0 15.694378823377313" Properties=species:S:1:pos:R:3:initial_magmoms:R:1:castep_labels:S:1 n_minim_iter=7 pbc="T T T"
P       -2.42578546       4.64747056      15.20055004       0.00000000 NULL
P        0.12978644       0.67068462       4.73763083       0.00000000 NULL
P        2.29599814       4.87226777       9.96909044       0.00000000 NULL
P        3.46231969       2.49609321       1.91288297       0.00000000 NULL
P        1.99060287       1.75041071       7.14434258       0.00000000 NULL
P        3.37224127       0.84870781      12.37580219       0.00000000 NULL
P        1.72201628       2.70494995      10.53033188       0.00000000 NULL
P        2.67987933       0.13883538       0.06741266       0.00000000 NULL
P        4.42326821       2.25142640       5.29887227       0.00000000 NULL
P        0.45586185       0.21610989       6.78972985       0.00000000 NULL
P        5.46835527       0.28673351      12.02118946       0.00000000 NULL
P        2.90094671       4.59236833       1.55827024       0.00000000 NULL
P        2.99829442       1.41085444       9.29567558       0.00000000 NULL
P        3.16245985       1.89117243      14.52713519       0.00000000 NULL
P        2.66440956       1.79318487       4.06421597       0.00000000 NULL
P        3.37649715       2.99773834      11.90015025       0.00000000 NULL
P        1.59907671       1.42526364       1.43723103       0.00000000 NULL
P        3.84958997       0.67220974       6.66869064       0.00000000 NULL
18
Lattice="5.841626561844333 6.556786116998467e-16 0.0 -2.9208132809221663 5.058997001979139 0.0 0.0 0.0 15.527552789340385" Properties=species:S:1:pos:R:3:initial_magmoms:R:1:castep_labels:S:1 n_minim_iter=8 pbc="T T T"
P       -2.40474646       4.61486921      15.03398042       0.00000000 NULL
P        0.12659225       0.66899138       4.68227856       0.00000000 NULL
P        2.27815333       4.83413392       9.85812949       0.00000000 NULL
P        3.44326128       2.47780812       1.90220090       0.00000000 NULL
P        1.97415085       1.74304819       7.07805182       0.00000000 NULL
P        3.34502684       0.83814120      12.25390275       0.00000000 NULL
P        1.70476365       2.68986326      10.41405137       0.00000000 NULL
P        2.65975453       0.13143750       0.06234951       0.00000000 NULL
P        4.39792079       2.23769675       5.23820044       0.00000000 NULL
P        0.45768475       0.20761270       6.72371653       0.00000000 NULL
P        5.43298602       0.29256078      11.89956746       0.00000000 NULL
P        2.87176819       4.55882403       1.54786560       0.00000000 NULL
P        2.97500233       1.39911184       9.18988817       0.00000000 NULL
P        3.14245871       1.87687218      14.36573910       0.00000000 NULL
P        2.64497793       1.78301349       4.01403724       0.00000000 NULL
P        3.35583046       2.97745843      11.77416198       0.00000000 NULL
P        1.58515640       1.41750572       1.42246012       0.00000000 NULL
P        3.82145211       0.66403336       6.59831105       0.00000000 NULL
18
Lattice="5.859983554202977 5.403147820692598e-18 0.0 -2.929991777101488 5.074894623698801 0.0 0.0 0.0 15.59929546655452" Properties=species:S:1:pos:R:3:initial_magmoms:R:1:castep_labels:S:1 n_minim_iter=9 pbc="T T T"
P       -2.41111463       4.62944297      15.10087446       0.00000000 NULL
P        0.12633358       0.67208712       4.70134415       0.00000000 NULL
P        2.28478017       4.84825966       9.90110931       0.00000000 NULL
P        3.45688577       2.48534004       1.91483793       0.00000000 NULL
P        1.97917277       1.75108139       7.11460308       0.00000000 NULL
P        3.35391591       0.83847371      12.31436824       0.00000000 NULL
P        1.70732089       2.69992159      10.46048897       0.00000000 NULL
P        2.66812213       0.12862297       0.06095866       0.00000000 NULL
P        4.41453143       2.24635057       5.26072381       0.00000000 NULL
P        0.46105172       0.20488580       6.75772794       0.00000000 NULL
P        5.45202109       0.29684011      11.95749309       0.00000000 NULL
P        2.87690164       4.57316922       1.55796278       0.00000000 NULL
P        2.98384745       1.40254637       9.22942943       0.00000000 NULL
P        3.15341875       1.88281502      14.42919458       0.00000000 NULL
P        2.65270825       1.78953375       4.02966427       0.00000000 NULL
P        3.36805997       2.98759304      11.82893529       0.00000000 NULL
P        1.58862181       1.42302948       1.42940497       0.00000000 NULL
P        3.83329268       0.66427261       6.62917013       0.00000000 NULL
18
Lattice="5.850705313143999 -8.693922503052758e-17 0.0 -2.925352656571999 5.0668594312392905 0.0 0.0 0.0 15.564240154373998" Properties=species:S:1:pos:R:3:initial_magmoms:R:1:castep_labels:S:1 n_minim_iter=10 pbc="T T T"
P       -2.40625106       4.62221832      15.06529705       0.00000000 NULL
P        0.12551941       0.67187623       4.68913694       0.00000000 NULL
P        2.28073078       4.83962482       9.87721700       0.00000000 NULL
P        3.45343566       2.48121021       1.91372852       0.00000000 NULL
P        1.97519612       1.75015841       7.10180857       0.00000000 NULL
P        3.34742532       0.83549132      12.28988863       0.00000000 NULL
P        1.70279292       2.69701964      10.43563783       0.00000000 NULL
P        2.66362104       0.12615261       0.05947772       0.00000000 NULL
P        4.40964313       2.24368768       5.24755777       0.00000000 NULL
P        0.46192799       0.20204536       6.74457048       0.00000000 NULL
P        5.44476461       0.29901920      11.93265053       0.00000000 NULL
P        2.86936449       4.56579538       1.55649043       0.00000000 NULL
P        2.97851102       1.39968243       9.20631253       0.00000000 NULL
P        3.14928897       1.87962550      14.39439259       0.00000000 NULL
P        2.64825710       1.78755201       4.01823248       0.00000000 NULL
P        3.36379219       2.98327346      11.80249271       0.00000000 NULL
P        1.58521832       1.42149327       1.42633261       0.00000000 NULL
P        3.82704658       0.66209321       6.61441266       0.00000000 NULL
18
Lattice="5.842919249151613 5.42644140249303e-16 0.0 -2.9214596245758067 5.060116502026393 0.0 0.0 0.0 15.538570427112482" Properties=species:S:1:pos:R:3:initial_magmoms:R:1:castep_labels:S:1 n_minim_iter=11 pbc="T T T"
P       -2.40133029       4.61622016      15.03742249       0.00000000 NULL
P        0.12436055       0.67239390       4.67837554       0.00000000 NULL
P        2.27696886       4.83161945       9.85789902       0.00000000 NULL
P        3.45260267       2.47755965       1.91620854       0.00000000 NULL
P        1.97098803       1.75126230       7.09573202       0.00000000 NULL
P        3.34078731       0.83129506      12.27525549       0.00000000 NULL
P        1.69707910       2.69584573      10.41608232       0.00000000 NULL
P        2.65970852       0.12179125       0.05703537       0.00000000 NULL
P        4.40759038       2.24248002       5.23655885       0.00000000 NULL
P        0.46412188       0.19713878       6.73713598       0.00000000 NULL
P        5.44013082       0.30337246      11.91665946       0.00000000 NULL
P        2.86012529       4.55960577       1.55761251       0.00000000 NULL
P        2.97354442       1.39660099       9.18689478       0.00000000 NULL
P        3.14665481       1.87686502      14.36641826       0.00000000 NULL
P        2.64417876       1.78665100       4.00737131       0.00000000 NULL
P        3.36126974       2.98012803      11.78330768       0.00000000 NULL
P        1.58141751       1.42088147       1.42426073       0.00000000 NULL
P        3.82169075       0.65910751       6.60378420       0.00000000 NULL
18
Lattice="5.692694736129462 3.1674405054064573e-16 0.0 -2.846347368064731 4.930018257478063 0.0 0.0 0.0 15.121555272935083" Properties=species:S:1:pos:R:3:initial_magmoms:R:1:castep_labels:S:1 n_minim_iter=12 pbc="T T T"
P       -2.31414277       4.49961242      14.58579844       0.00000000 NULL
P        0.10663980       0.67610611       4.50476159       0.00000000 NULL
P        2.20750211       4.68431847       9.54528001       0.00000000 NULL
P        3.42717032       2.40829039       1.95667159       0.00000000 NULL
P        1.89346864       1.76387186       6.99719002       0.00000000 NULL
P        3.21840230       0.75785651      12.03770844       0.00000000 NULL
P        1.59623138       2.66608032      10.09933198       0.00000000 NULL
P        2.58568548       0.04933726       0.01829513       0.00000000 NULL
P        4.35712439       2.21460117       5.05881355       0.00000000 NULL
P        0.49744599       0.11426361       6.61532310       0.00000000 NULL
P        5.34501627       0.37366955      11.65584152       0.00000000 NULL
P        2.69657899       4.44208559       1.57480467       0.00000000 NULL
P        2.88088585       1.34018070       8.87083972       0.00000000 NULL
P        3.09162099       1.82483047      13.91135814       0.00000000 NULL
P        2.56653441       1.76500758       3.83032129       0.00000000 NULL
P        3.30549203       2.91724906      11.47096094       0.00000000 NULL
P        1.51353664       1.40401604       1.38992409       0.00000000 NULL
P        3.72001258       0.60875365       6.43044251       0.00000000 NULL
18
Lattice="5.842742519387012 6.448414994682828e-16 0.0 -2.9213712596935064 5.059963449560644 0.0 0.0 0.0 17.386392865279426" Properties=species:S:1:pos:R:3:initial_magmoms:R:1:castep_labels:S:1 n_minim_iter=13 pbc="T T T"
P       -2.39428803       4.61396732      16.76610902       0.00000000 NULL
P        0.12270207       0.67946604       5.17518044       0.00000000 NULL
P        2.27158508       4.82649404      10.97064473       0.00000000 NULL
P        3.54510183       2.47867019       2.24600022       0.00000000 NULL
P        1.92359996       1.83081366       8.04146451       0.00000000 NULL
P        3.29541111       0.75048011      13.83692879       0.00000000 NULL
P        1.61991485       2.73614611      11.61538049       0.00000000 NULL
P        2.66321276       0.03481486       0.02445191       0.00000000 NULL
P        4.48098529       2.28900298       5.81991620       0.00000000 NULL
P        0.51277907       0.09450452       7.60943350       0.00000000 NULL
P        5.50450937       0.39682795      13.40489779       0.00000000 NULL
P        2.74682446       4.56863148       1.81396921       0.00000000 NULL
P        2.96693457       1.36467850      10.20228634       0.00000000 NULL
P        3.17742869       1.88710197      15.99775063       0.00000000 NULL
P        2.61974964       1.80818349       4.40682206       0.00000000 NULL
P        3.39150235       2.99913425      13.18751886       0.00000000 NULL
P        1.54966460       1.43756057       1.59659029       0.00000000 NULL
P        3.82294595       0.62326913       7.39205458       0.00000000 NULL
18
Lattice="5.502493721728892 4.79758464669913e-16 0.0 -2.7512468608644465 4.7652993471816005 0.0 0.0 0.0 15.904474077112019" Properties=species:S:1:pos:R:3:initial_magmoms:R:1:castep_labels:S:1 n_minim_iter=14 pbc="T T T"
P       -2.25437094       4.34453238      15.34236954       0.00000000 NULL
P        0.11595664       0.64069113       4.73938682       0.00000000 NULL
P        2.13841347       4.54537566      10.04087818       0.00000000 NULL
P        3.33619714       2.33473078       2.05749596       0.00000000 NULL
P        1.81245871       1.72186656       7.35898732       0.00000000 NULL
P        3.10508391       0.70870248      12.66047868       0.00000000 NULL
P        1.53034236       2.57771563      10.62450746       0.00000000 NULL
P        2.50495505       0.03645801       0.02152474       0.00000000 NULL
P        4.21844236       2.15112617       5.32301610       0.00000000 NULL
P        0.48267678       0.09045894       6.95668721       0.00000000 NULL
P        5.18281532       0.37278136      12.25817857       0.00000000 NULL
P        2.58824766       4.30205953       1.65519585       0.00000000 NULL
P        2.79186691       1.28622291       9.33148791       0.00000000 NULL
P        2.99265828       1.77471669      14.63297927       0.00000000 NULL
P        2.46921457       1.70436022       4.02999655       0.00000000 NULL
P        3.18983910       2.82296799      12.06146305       0.00000000 NULL
P        1.46281191       1.35099818       1.45848033       0.00000000 NULL
P        3.60108875       0.59133366       6.75997169       0.00000000 NULL
18
Lattice="5.540966727635787 8.708070593080624e-16 0.0 -2.7704833638178945 4.79861794765692 0.0 0.0 0.0 15.72971135993211" Properties=species:S:1:pos:R:3:initial_magmoms:R:1:castep_labels:S:1 n_minim_iter=15 pbc="T T T"
P       -2.27339353       4.37375829      15.17444093       0.00000000 NULL
P        0.11939406       0.64292274       4.68796669       0.00000000 NULL
P        2.15399863       4.58055535       9.93120381       0.00000000 NULL
P        3.36284725       2.35047161       2.03693672       0.00000000 NULL
P        1.82397470       1.73707582       7.28017384       0.00000000 NULL
P        3.12462731       0.71107100      12.52341096       0.00000000 NULL
P        1.53922077       2.59443357      10.50744472       0.00000000 NULL
P        2.52451069       0.03578798       0.02097048       0.00000000 NULL
P        4.24771780       2.16839688       5.26420760       0.00000000 NULL
P        0.48545993       0.08808272       6.87913652       0.00000000 NULL
P        5.22195461       0.37637975      12.12237364       0.00000000 NULL
P        2.60403472       4.33415596       1.63589940       0.00000000 NULL
P        2.81171876       1.29426041       9.22837895       0.00000000 NULL
P        3.01424468       1.78789015      14.47161607       0.00000000 NULL
P        2.48548583       1.71646787       3.98514183       0.00000000 NULL
P        3.21181518       2.84377108      11.92822022       0.00000000 NULL
P        1.47228086       1.35962848       1.44174598       0.00000000 NULL
P        3.62735321       0.59521887       6.68498310       0.00000000 NULL
18
Lattice="5.586485996703833 -5.053506194196248e-16 0.0 -2.793242998351916 4.838038791031547 0.0 0.0 0.0 15.445853050102338" Properties=species:S:1:pos:R:3:initial_magmoms:R:1:castep_labels:S:1 n_minim_iter=16 pbc="T T T"
P       -2.29894858       4.40745567      14.90185353       0.00000000 NULL
P        0.12574844       0.64336357       4.60461816       0.00000000 NULL
P        2.17319931       4.62525883       9.75323585       0.00000000 NULL
P        3.39767812       2.36917956       2.00388994       0.00000000 NULL
P        1.83587697       1.75788627       7.15250762       0.00000000 NULL
P        3.14617306       0.71097344      12.30112530       0.00000000 NULL
P        1.54770651       2.61364735      10.31720964       0.00000000 NULL
P        2.54914746       0.03352996       0.01997427       0.00000000 NULL
P        4.28287419       2.19086196       5.16859196       0.00000000 NULL
P        0.48861062       0.08218703       6.75308660       0.00000000 NULL
P        5.27100435       0.38205618      11.90170428       0.00000000 NULL
P        2.62011318       4.37379607       1.60446892       0.00000000 NULL
P        2.83561654       1.30273746       9.06069663       0.00000000 NULL
P        3.04047371       1.80434771      14.20931432       0.00000000 NULL
P        2.50363791       1.73095410       3.91207895       0.00000000 NULL
P        3.23728233       2.86912911      11.71167517       0.00000000 NULL
P        1.48310585       1.36900466       1.41443981       0.00000000 NULL
P        3.65933997       0.59990550       6.56305749       0.00000000 NULL
