14
Lattice="3.5911699999999995 5.387682938514743e-17 6.659410501521843e-16 -0.16503636323703455 6.3336601862516675 3.0967035692338592e-15 -0.22797009512497945 -1.5165022677224376 13.528609798136003" Properties=species:S:1:pos:R:3:initial_magmoms:R:1:castep_labels:S:1 n_minim_iter=1 pbc="T T T"
P        0.58274683       4.42284358       2.76854341       0.00000000 NULL
P        2.61541671       0.39431434      10.76006639       0.00000000 NULL
P        2.25034387       4.79519190       0.92176506       0.00000000 NULL
P        0.94781967       0.02196602      12.60684474       0.00000000 NULL
P        0.43965371       5.71056501       0.96090198       0.00000000 NULL
P        2.75850983      -0.89340709      12.56770782       0.00000000 NULL
P        2.04853202       0.27280129       2.05294489       0.00000000 NULL
P        1.14963152       4.54435663      11.47566491       0.00000000 NULL
P        2.10049983       2.89273898      12.48189314       0.00000000 NULL
P        1.09766371       1.92441894       1.04671666       0.00000000 NULL
P        2.95614508       3.80152375      10.87425326       0.00000000 NULL
P        0.24201846       1.01563417       2.65435654       0.00000000 NULL
P        2.20755605       2.38436083       9.41407523       0.00000000 NULL
P        0.99060749       2.43279709       4.11453457       0.00000000 NULL
14
Lattice="3.615508713985517 0.002734653635742989 -0.000744844460247786 -0.16133183406858534 6.358603137069942 0.010491569169367256 -0.23347591006705348 -1.500341450843832 13.58330718012973" Properties=species:S:1:pos:R:3:initial_magmoms:R:1:castep_labels:S:1 n_minim_iter=2 pbc="T T T"
P        0.58952821       4.44517253       2.78756715       0.00000000 NULL
P        2.63117276       0.41582381      10.80548676       0.00000000 NULL
P        2.26900930       4.81687477       0.93336404       0.00000000 NULL
P        0.95169167       0.04412157      12.65968986       0.00000000 NULL
P        0.44660545       5.73509096       0.97389195       0.00000000 NULL
P        2.77409552      -0.87409462      12.61916196       0.00000000 NULL
P        2.06235465       0.27894971       2.06184212       0.00000000 NULL
P        1.15834632       4.58204663      11.53121178       0.00000000 NULL
P        2.11423854       2.92602261      12.53884756       0.00000000 NULL
P        1.10646243       1.93497373       1.05420634       0.00000000 NULL
P        2.97695190       3.83651865      10.92532429       0.00000000 NULL
P        0.24374907       1.02447769       2.66772962       0.00000000 NULL
P        2.22240089       2.41089378       9.45734378       0.00000000 NULL
P        0.99830008       2.45010256       4.13571013       0.00000000 NULL
14
Lattice="4.0692087899868365 0.05659255548891909 -0.014710867539948087 -0.08719425825377124 6.810437071679133 0.21213942313371292 -0.3376332060058066 -1.1831919676319922 14.57526000423474" Properties=species:S:1:pos:R:3:initial_magmoms:R:1:castep_labels:S:1 n_minim_iter=3 pbc="T T T"
P        0.71938934       4.85538145       3.14097285       0.00000000 NULL
P        2.92499199       0.82845621      11.63171571       0.00000000 NULL
P        2.62052616       5.21395625       1.15213016       0.00000000 NULL
P        1.02385517       0.46988141      13.62055840       0.00000000 NULL
P        0.58064753       6.18131792       1.21970449       0.00000000 NULL
P        3.06373379      -0.49748026      13.55298407       0.00000000 NULL
P        2.32025169       0.39685253       2.22399872       0.00000000 NULL
P        1.32412963       5.28698512      12.54868984       0.00000000 NULL
P        2.37209192       3.55398498      13.57872044       0.00000000 NULL
P        1.27228940       2.12985268       1.19396812       0.00000000 NULL
P        3.36752672       4.49331569      11.85945243       0.00000000 NULL
P        0.27685461       1.19052197       2.91323613       0.00000000 NULL
P        2.50090136       2.91134931      10.24801128       0.00000000 NULL
P        1.14347997       2.77248835       4.52467728       0.00000000 NULL
14
Lattice="4.137530050627972 0.0888960310448517 -0.013763063866727439 -0.0333611774978676 6.835741692158517 0.31442647503739335 -0.35204105418984194 -0.9730801353383463 14.585040637377968" Properties=species:S:1:pos:R:3:initial_magmoms:R:1:castep_labels:S:1 n_minim_iter=4 pbc="T T T"
P        0.77155756       4.92132557       3.22029872       0.00000000 NULL
P        2.98057026       1.03023202      11.66540533       0.00000000 NULL
P        2.70563304       5.26696690       1.23329149       0.00000000 NULL
P        1.04649478       0.68459069      13.65241256       0.00000000 NULL
P        0.63956173       6.22193771       1.31303731       0.00000000 NULL
P        3.11256609      -0.27038013      13.57266674       0.00000000 NULL
P        2.36183739       0.45148557       2.23486929       0.00000000 NULL
P        1.39029043       5.50007202      12.65083476       0.00000000 NULL
P        2.43956338       3.78515295      13.65633232       0.00000000 NULL
P        1.31256444       2.16640464       1.22937173       0.00000000 NULL
P        3.45912448       4.70758804      11.94532754       0.00000000 NULL
P        0.29300334       1.24396955       2.94037650       0.00000000 NULL
P        2.56802432       3.09219698      10.31414268       0.00000000 NULL
P        1.18410350       2.85936061       4.57156137       0.00000000 NULL
14
Lattice="4.192510036575131 0.13588477272676733 -0.011196836835590333 0.04698506772618889 6.832339713022879 0.45884278127914735 -0.36570647292154246 -0.6670423822018681 14.523141944925012" Properties=species:S:1:pos:R:3:initial_magmoms:R:1:castep_labels:S:1 n_minim_iter=5 pbc="T T T"
P        0.84132495       4.98612702       3.31733342       0.00000000 NULL
P        3.03246368       1.31505508      11.65345447       0.00000000 NULL
P        2.80142045       5.31282138       1.34334879       0.00000000 NULL
P        1.07236818       0.98836072      13.62743910       0.00000000 NULL
P        0.71991294       6.24256848       1.43959027       0.00000000 NULL
P        3.15387569       0.05861363      13.53119762       0.00000000 NULL
P        2.39747121       0.52835424       2.24000112       0.00000000 NULL
P        1.47631742       5.77282786      12.73078677       0.00000000 NULL
P        2.51493517       4.09389442      13.69707851       0.00000000 NULL
P        1.35885346       2.20728769       1.27370938       0.00000000 NULL
P        3.55841165       4.98586705      12.00493846       0.00000000 NULL
P        0.31537698       1.31531505       2.96584943       0.00000000 NULL
P        2.64214721       3.33428045      10.35795206       0.00000000 NULL
P        1.23164142       2.96690166       4.61283583       0.00000000 NULL
14
Lattice="4.180825431430584 0.16626580690996942 -0.005241793010333473 0.10110434678062669 6.822444366581718 0.5464392456107543 -0.35536045823704143 -0.47924661207486113 14.492909937001862" Properties=species:S:1:pos:R:3:initial_magmoms:R:1:castep_labels:S:1 n_minim_iter=6 pbc="T T T"
P        0.88255367       5.01685959       3.38059085       0.00000000 NULL
P        3.04401565       1.49260397      11.65351654       0.00000000 NULL
P        2.83386691       5.33369928       1.41385079       0.00000000 NULL
P        1.09270241       1.17576429      13.62025660       0.00000000 NULL
P        0.76690865       6.24424764       1.51605827       0.00000000 NULL
P        3.15966067       0.26521592      13.51804912       0.00000000 NULL
P        2.39634177       0.57699578       2.24913896       0.00000000 NULL
P        1.53022755       5.93246778      12.78496843       0.00000000 NULL
P        2.54890748       4.27578991      13.73242877       0.00000000 NULL
P        1.37766184       2.23367365       1.30167862       0.00000000 NULL
P        3.59476151       5.14634355      12.04480217       0.00000000 NULL
P        0.33180781       1.36312001       2.98930522       0.00000000 NULL
P        2.67412105       3.48085650      10.39854623       0.00000000 NULL
P        1.25244827       3.02860706       4.63556116       0.00000000 NULL
14
Lattice="4.155402098178454 0.17229998267822721 0.0042589797733275595 0.11291503613307834 6.8528530364560085 0.5775291762983744 -0.3205035268652979 -0.4196367040263111 14.552630578616837" Properties=species:S:1:pos:R:3:initial_magmoms:R:1:castep_labels:S:1 n_minim_iter=7 pbc="T T T"
P        0.89403446       5.04674550       3.42176611       0.00000000 NULL
P        3.05377914       1.55877082      11.71265262       0.00000000 NULL
P        2.82682373       5.36006466       1.44855857       0.00000000 NULL
P        1.12098988       1.24545166      13.68586016       0.00000000 NULL
P        0.77483454       6.27054958       1.54731029       0.00000000 NULL
P        3.17297906       0.33496674      13.58710844       0.00000000 NULL
P        2.38862522       0.59382950       2.27041747       0.00000000 NULL
P        1.55918839       6.01168682      12.86400127       0.00000000 NULL
P        2.56843779       4.34920023      13.81672228       0.00000000 NULL
P        1.37937582       2.25631609       1.31769645       0.00000000 NULL
P        3.60545280       5.21367900      12.11478070       0.00000000 NULL
P        0.34236080       1.39183732       3.01963804       0.00000000 NULL
P        2.69061514       3.54440056      10.47371863       0.00000000 NULL
P        1.25719847       3.06111575       4.66070011       0.00000000 NULL
14
Lattice="4.130394936906355 0.17175267363138016 0.010322026072303227 0.11309899329234328 6.867421606100369 0.6023228581802256 -0.2958443021804263 -0.3695300514061478 14.55141166288634" Properties=species:S:1:pos:R:3:initial_magmoms:R:1:castep_labels:S:1 n_minim_iter=8 pbc="T T T"
P        0.89455812       5.06354633       3.44374948       0.00000000 NULL
P        3.05309150       1.60609790      11.72030706       0.00000000 NULL
P        2.81108035       5.37020647       1.47106527       0.00000000 NULL
P        1.13656928       1.29943776      13.69299128       0.00000000 NULL
P        0.77175809       6.28302035       1.56908647       0.00000000 NULL
P        3.17589153       0.38662388      13.59497008       0.00000000 NULL
P        2.37816406       0.60355382       2.27849376       0.00000000 NULL
P        1.56948557       6.06609040      12.88556278       0.00000000 NULL
P        2.57217649       4.40098284      13.83800501       0.00000000 NULL
P        1.37547314       2.26866138       1.32605154       0.00000000 NULL
P        3.60012009       5.25751563      12.13103726       0.00000000 NULL
P        0.34752954       1.41212860       3.03301928       0.00000000 NULL
P        2.69295242       3.58803006      10.49768801       0.00000000 NULL
P        1.25469721       3.08161416       4.66636854       0.00000000 NULL
14
Lattice="4.118539042224896 0.17032220087533284 0.013962907125272811 0.11112095421278279 6.883622860709928 0.6184740818820283 -0.28077173148512546 -0.33844647349248114 14.560473061281108" Properties=species:S:1:pos:R:3:initial_magmoms:R:1:castep_labels:S:1 n_minim_iter=9 pbc="T T T"
P        0.89402204       5.07910304       3.45997705       0.00000000 NULL
P        3.05486623       1.63639555      11.73293300       0.00000000 NULL
P        2.80220845       5.38094176       1.48597041       0.00000000 NULL
P        1.14667982       1.33455682      13.70693964       0.00000000 NULL
P        0.76848410       6.29726215       1.58397293       0.00000000 NULL
P        3.18040416       0.41823644      13.60893712       0.00000000 NULL
P        2.37361319       0.60952396       2.28502474       0.00000000 NULL
P        1.57527508       6.10597462      12.90788531       0.00000000 NULL
P        2.57529170       4.43714997      13.86089517       0.00000000 NULL
P        1.37359656       2.27834861       1.33201488       0.00000000 NULL
P        3.59841581       5.28919894      12.14926544       0.00000000 NULL
P        0.35047246       1.42629965       3.04364461       0.00000000 NULL
P        2.69555522       3.61832331      10.51974425       0.00000000 NULL
P        1.25333304       3.09717528       4.67316580       0.00000000 NULL
14
Lattice="4.09918158323962 0.16647866138304257 0.020086183048734992 0.10523179039593189 6.911320372149805 0.6460891541208638 -0.25485230445237056 -0.28520547393587825 14.570979343450487" Properties=species:S:1:pos:R:3:initial_magmoms:R:1:castep_labels:S:1 n_minim_iter=10 pbc="T T T"
P        0.89139731       5.10562835       3.48653207       0.00000000 NULL
P        3.05816376       1.68696520      11.75062261       0.00000000 NULL
P        2.78582076       5.39824092       1.51078697       0.00000000 NULL
P        1.16374031       1.39435264      13.72636771       0.00000000 NULL
P        0.76080274       6.32165293       1.60919373       0.00000000 NULL
P        3.18875833       0.47094063      13.62796095       0.00000000 NULL
P        2.36606560       0.61895228       2.29523583       0.00000000 NULL
P        1.58349547       6.17364128      12.94191886       0.00000000 NULL
P        2.57972949       4.49837192      13.89542011       0.00000000 NULL
P        1.36983158       2.29422164       1.34173457       0.00000000 NULL
P        3.59462497       5.34225979      12.17650435       0.00000000 NULL
P        0.35493609       1.45033377       3.06065033       0.00000000 NULL
P        2.69919403       3.66930236      10.55365434       0.00000000 NULL
P        1.25036704       3.12329120       4.68350034       0.00000000 NULL
14
Lattice="4.089571798946698 0.16388372707139856 0.02302122445991679 0.10109679587202798 6.925668731687839 0.6601583831946651 -0.24208961229331283 -0.2581079112518265 14.574184085156812" Properties=species:S:1:pos:R:3:initial_magmoms:R:1:castep_labels:S:1 n_minim_iter=11 pbc="T T T"
P        0.88915255       5.11931407       3.49949350       0.00000000 NULL
P        3.05942643       1.71213048      11.75787019       0.00000000 NULL
P        2.77679158       5.40669464       1.52297992       0.00000000 NULL
P        1.17178740       1.42474991      13.73438378       0.00000000 NULL
P        0.75590166       6.33438721       1.62196905       0.00000000 NULL
P        3.19267732       0.49705734      13.63539464       0.00000000 NULL
P        2.36211451       0.62342642       2.29991116       0.00000000 NULL
P        1.58646447       6.20801812      12.95745253       0.00000000 NULL
P        2.58099124       4.52942849      13.91096661       0.00000000 NULL
P        1.36758774       2.30201606       1.34639708       0.00000000 NULL
P        3.59179781       5.36895662      12.18860481       0.00000000 NULL
P        0.35678117       1.46248793       3.06875888       0.00000000 NULL
P        2.70017853       3.69499138      10.56912794       0.00000000 NULL
P        1.24840045       3.13645317       4.68823576       0.00000000 NULL
14
Lattice="4.045306326024395 0.15147220956960394 0.03605383317779785 0.08124117177625585 6.994003554581683 0.7255957362065071 -0.18494211537554225 -0.13249264592112592 14.589146439923054" Properties=species:S:1:pos:R:3:initial_magmoms:R:1:castep_labels:S:1 n_minim_iter=12 pbc="T T T"
P        0.87790175       5.18423679       3.55941594       0.00000000 NULL
P        3.06370363       1.82874633      11.79138007       0.00000000 NULL
P        2.73458236       5.44660843       1.57881884       0.00000000 NULL
P        1.20702302       1.56637469      13.77197717       0.00000000 NULL
P        0.73258699       6.39532201       1.68144237       0.00000000 NULL
P        3.20901839       0.61766111      13.66935364       0.00000000 NULL
P        2.34341197       0.64425506       2.32115585       0.00000000 NULL
P        1.59819341       6.36872805      13.02964016       0.00000000 NULL
P        2.58477787       4.67464559      13.98295662       0.00000000 NULL
P        1.35682752       2.33833753       1.36783939       0.00000000 NULL
P        3.57710341       5.49366141      12.24444391       0.00000000 NULL
P        0.36450197       1.51932171       3.10635210       0.00000000 NULL
P        2.70294018       3.81503356      10.64036658       0.00000000 NULL
P        1.23866520       3.19794956       4.71042943       0.00000000 NULL
14
Lattice="3.998831141229058 0.13996190474229478 0.04755758276438347 0.06307654466671797 7.068430045187324 0.7907089300041414 -0.13379441280397847 -0.00924554243719235 14.60549121409492" Properties=species:S:1:pos:R:3:initial_magmoms:R:1:castep_labels:S:1 n_minim_iter=13 pbc="T T T"
P        0.86640393       5.25375985       3.61868479       0.00000000 NULL
P        3.06170934       1.94538655      11.82507294       0.00000000 NULL
P        2.69205769       5.48941220       1.63169460       0.00000000 NULL
P        1.23605559       1.70973421      13.81206313       0.00000000 NULL
P        0.71033934       6.46309257       1.74127028       0.00000000 NULL
P        3.21777393       0.73605383      13.70248745       0.00000000 NULL
P        2.32186144       0.66646433       2.34143669       0.00000000 NULL
P        1.60625183       6.53268208      13.10232103       0.00000000 NULL
P        2.58231115       4.82313147      14.05586566       0.00000000 NULL
P        1.34580212       2.37601494       1.38789206       0.00000000 NULL
P        3.55796450       5.62170444      12.29961805       0.00000000 NULL
P        0.37014877       1.57744197       3.14413968       0.00000000 NULL
P        2.70028050       3.93790834      10.71073616       0.00000000 NULL
P        1.22783278       3.26123807       4.73302157       0.00000000 NULL
14
Lattice="3.8667186012888224 0.12157993125103962 0.07902901485974467 0.036728084271737745 7.273612917846383 0.9567325735436951 0.0009134226337175154 0.3007090641535262 14.670460789341517" Properties=species:S:1:pos:R:3:initial_magmoms:R:1:castep_labels:S:1 n_minim_iter=14 pbc="T T T"
P        0.85130649       5.44135199       3.77519070       0.00000000 NULL
P        3.05305362       2.25454993      11.93103168       0.00000000 NULL
P        2.59048205       5.60643217       1.76348721       0.00000000 NULL
P        1.31387805       2.08946974      13.94273516       0.00000000 NULL
P        0.67006916       6.65307684       1.89738394       0.00000000 NULL
P        3.23429095       1.04282507      13.80883843       0.00000000 NULL
P        2.25959350       0.73374636       2.39945277       0.00000000 NULL
P        1.64476661       6.96215556      13.30676960       0.00000000 NULL
P        2.58272336       5.21503588      14.26769279       0.00000000 NULL
P        1.32163675       2.48086603       1.43852959       0.00000000 NULL
P        3.51743983       5.96032755      12.45586650       0.00000000 NULL
P        0.38692028       1.73557436       3.25035587       0.00000000 NULL
P        2.69763283       4.26674828      10.91054412       0.00000000 NULL
P        1.20672728       3.42915363       4.79567825       0.00000000 NULL
14
Lattice="3.6960901557251535 0.1562575807318409 0.13634926622901405 0.10572964810470772 7.418831426245202 1.0398997360442193 0.21303726060160658 0.44662623032785687 14.957889530416201" Properties=species:S:1:pos:R:3:initial_magmoms:R:1:castep_labels:S:1 n_minim_iter=15 pbc="T T T"
P        0.92330621       5.54065020       3.93054830       0.00000000 NULL
P        3.09155085       2.48106503      12.20359023       0.00000000 NULL
P        2.54063478       5.64734834       1.84600250       0.00000000 NULL
P        1.47422228       2.37436689      14.28813603       0.00000000 NULL
P        0.71044371       6.79294993       2.00700077       0.00000000 NULL
P        3.30441335       1.22876530      14.12713776       0.00000000 NULL
P        2.19039002       0.81813391       2.51167529       0.00000000 NULL
P        1.82446704       7.20358133      13.62246325       0.00000000 NULL
P        2.68040722       5.43890442      14.66118068       0.00000000 NULL
P        1.33444985       2.58281081       1.47295785       0.00000000 NULL
P        3.58122661       6.14178527      12.72338276       0.00000000 NULL
P        0.43363045       1.87992997       3.41075577       0.00000000 NULL
P        2.77758759       4.49130206      11.26223154       0.00000000 NULL
P        1.23726948       3.53041318       4.87190700       0.00000000 NULL
14
Lattice="3.6292260365208335 0.053463952017462346 0.07267306038280485 -0.07249218559410227 7.2109161043196375 1.314718047745669 0.02081000551456879 1.0848225345197173 14.802611997426181" Properties=species:S:1:pos:R:3:initial_magmoms:R:1:castep_labels:S:1 n_minim_iter=16 pbc="T T T"
P        0.74987517       5.47493669       4.09036824       0.00000000 NULL
P        2.82766869       2.87426590      12.09963487       0.00000000 NULL
P        2.36064396       5.41146528       1.98903928       0.00000000 NULL
P        1.21689989       2.93773731      14.20096383       0.00000000 NULL
P        0.50660666       6.63684692       2.24760395       0.00000000 NULL
P        3.07093719       1.71235567      13.94239915       0.00000000 NULL
P        2.09980194       0.85163735       2.48186526       0.00000000 NULL
P        1.47774192       7.49756524      13.70813785       0.00000000 NULL
P        2.32569086       5.80478130      14.65177612       0.00000000 NULL
P        1.25185300       2.54442129       1.53822698       0.00000000 NULL
P        3.24249344       6.35182934      12.72760519       0.00000000 NULL
P        0.33505042       1.99737325       3.46239792       0.00000000 NULL
P        2.49835276       4.76415652      11.28744230       0.00000000 NULL
P        1.07919109       3.58504607       4.90256081       0.00000000 NULL
14
Lattice="3.6721153920662113 0.1019203417535899 0.12897783624104725 0.010998154094774596 7.4980283546450925 1.1874070602943614 0.20973551641315002 0.7460609481228696 15.354395853913985" Properties=species:S:1:pos:R:3:initial_magmoms:R:1:castep_labels:S:1 n_minim_iter=17 pbc="T T T"
P        0.86092893       5.62390504       4.13058034       0.00000000 NULL
P        3.03192013       2.72210460      12.54020041       0.00000000 NULL
P        2.46112701       5.62701613       1.96995567       0.00000000 NULL
P        1.43172205       2.71899351      14.70082508       0.00000000 NULL
P        0.60334411       6.87951815       2.17873074       0.00000000 NULL
P        3.28950495       1.46649150      14.49205001       0.00000000 NULL
P        2.16397469       0.85031694       2.59336476       0.00000000 NULL
P        1.72887437       7.49569270      14.07741599       0.00000000 NULL
P        2.58378568       5.70483187      15.11773985       0.00000000 NULL
P        1.30906338       2.64117777       1.55304090       0.00000000 NULL
P        3.49506151       6.34292423      13.11511766       0.00000000 NULL
P        0.39778756       2.00308541       3.55566309       0.00000000 NULL
P        2.70728031       4.71928618      11.64985613       0.00000000 NULL
P        1.18556875       3.62672347       5.02092462       0.00000000 NULL
14
Lattice="3.6114952910971914 0.12035075634458524 0.13580368812056523 0.04628929990911591 7.398922957237581 1.1616710769483325 0.23151507329292748 0.7141158456693307 15.149643917861196" Properties=species:S:1:pos:R:3:initial_magmoms:R:1:castep_labels:S:1 n_minim_iter=18 pbc="T T T"
P        0.87907712       5.54722089       4.07020087       0.00000000 NULL
P        3.01022254       2.68616866      12.37691782       0.00000000 NULL
P        2.44721824       5.56135656       1.94209910       0.00000000 NULL
P        1.44208142       2.67203300      14.50501958       0.00000000 NULL
P        0.62684200       6.78819679       2.14208680       0.00000000 NULL
P        3.26245766       1.44519277      14.30503189       0.00000000 NULL
P        2.13431342       0.84969719       2.56389598       0.00000000 NULL
P        1.75498624       7.38369237      13.88322270       0.00000000 NULL
P        2.58683014       5.62160754      14.91511510       0.00000000 NULL
P        1.30246953       2.61178202       1.53200358       0.00000000 NULL
P        3.48424427       6.25732113      12.94036668       0.00000000 NULL
P        0.40505539       1.97606843       3.50675201       0.00000000 NULL
P        2.70005695       4.65598808      11.49767937       0.00000000 NULL
P        1.18924272       3.57740148       4.94943931       0.00000000 NULL
14
Lattice="3.60299814601873 0.1332359676283781 0.1423772993284241 0.06940513336207133 7.408965456990362 1.1522671891316314 0.2513772529824623 0.6913102743080675 15.154613380677704" Properties=species:S:1:pos:R:3:initial_magmoms:R:1:castep_labels:S:1 n_minim_iter=19 pbc="T T T"
P        0.89938172       5.55110298       4.06652780       0.00000000 NULL
P        3.02439881       2.68240872      12.38273006       0.00000000 NULL
P        2.45952032       5.57159522       1.93979187       0.00000000 NULL
P        1.46426021       2.66191648      14.50946600       0.00000000 NULL
P        0.64692006       6.79700294       2.13525079       0.00000000 NULL
P        3.27686047       1.43650876      14.31400708       0.00000000 NULL
P        2.13432386       0.85545407       2.56864796       0.00000000 NULL
P        1.78945667       7.37805763      13.88060991       0.00000000 NULL
P        2.61396545       5.61373296      14.91779199       0.00000000 NULL
P        1.30981509       2.61977874       1.53146588       0.00000000 NULL
P        3.51077160       6.25596170      12.94215395       0.00000000 NULL
P        0.41300893       1.97755000       3.50710392       0.00000000 NULL
P        2.72071862       4.65519327      11.50239826       0.00000000 NULL
P        1.20306191       3.57831843       4.94685960       0.00000000 NULL
14
Lattice="3.5900359798838455 0.1465696860956265 0.14798274302134348 0.09351718334836244 7.4195076872263925 1.1426767423951747 0.26768620867683457 0.6678581188446939 15.15454215473231" Properties=species:S:1:pos:R:3:initial_magmoms:R:1:castep_labels:S:1 n_minim_iter=20 pbc="T T T"
P        0.91981284       5.55389504       4.06198773       0.00000000 NULL
P        3.03142654       2.68004045      12.38321391       0.00000000 NULL
P        2.46950699       5.57830830       1.93628027       0.00000000 NULL
P        1.48173238       2.65562719      14.50892137       0.00000000 NULL
P        0.66558755       6.80581112       2.12812604       0.00000000 NULL
P        3.28565182       1.42812437      14.31707560       0.00000000 NULL
P        2.13107825       0.86216668       2.57272474       0.00000000 NULL
P        1.82016112       7.37176881      13.87247690       0.00000000 NULL
P        2.63459495       5.60428216      14.91496661       0.00000000 NULL
P        1.31664442       2.62965333       1.53023503       0.00000000 NULL
P        3.53250797       6.25206339      12.93788925       0.00000000 NULL
P        0.41873140       1.98187210       3.50731239       0.00000000 NULL
P        2.73604679       4.65531770      11.50445816       0.00000000 NULL
P        1.21519259       3.57861779       4.94074348       0.00000000 NULL
14
Lattice="3.5827800427045347 0.14835629828289587 0.14643678050257516 0.09700164327722113 7.426058436500641 1.1444920537723917 0.26156842855962964 0.6698822887456223 15.163193574197363" Properties=species:S:1:pos:R:3:initial_magmoms:R:1:castep_labels:S:1 n_minim_iter=21 pbc="T T T"
P        0.92208993       5.55628889       4.06606609       0.00000000 NULL
P        3.01926019       2.68800814      12.38805632       0.00000000 NULL
P        2.46725332       5.57505863       1.93708462       0.00000000 NULL
P        1.47409680       2.66923839      14.51703779       0.00000000 NULL
P        0.66405176       6.81101301       2.13094343       0.00000000 NULL
P        3.27729836       1.43328401      14.32317898       0.00000000 NULL
P        2.12575242       0.86580149       2.57492990       0.00000000 NULL
P        1.81559769       7.37849553      13.87919251       0.00000000 NULL
P        2.62425795       5.60797524      14.92298052       0.00000000 NULL
P        1.31709217       2.63632178       1.53114188       0.00000000 NULL
P        3.52685400       6.25383616      12.94233743       0.00000000 NULL
P        0.41449612       1.99046086       3.51178498       0.00000000 NULL
P        2.72790394       4.66333634      11.51418695       0.00000000 NULL
P        1.21344617       3.58096068       4.93993546       0.00000000 NULL
14
Lattice="3.546839947815768 0.16042577336383237 0.1481602450483474 0.11993995484250948 7.425659707694741 1.1510706686294605 0.26524577044564823 0.6832997803878207 15.18982078000863" Properties=species:S:1:pos:R:3:initial_magmoms:R:1:castep_labels:S:1 n_minim_iter=22 pbc="T T T"
P        0.94033736       5.55131498       4.08096298       0.00000000 NULL
P        2.99168831       2.71807028      12.40808872       0.00000000 NULL
P        2.46155088       5.55402790       1.94565517       0.00000000 NULL
P        1.47047479       2.71535736      14.54339652       0.00000000 NULL
P        0.66914008       6.80832380       2.14101957       0.00000000 NULL
P        3.26288559       1.46106146      14.34803213       0.00000000 NULL
P        2.10575749       0.88077815       2.58579257       0.00000000 NULL
P        1.82626819       7.38860711      13.90325912       0.00000000 NULL
P        2.61215015       5.61632994      14.95209086       0.00000000 NULL
P        1.31987552       2.65305532       1.53696083       0.00000000 NULL
P        3.52478228       6.25463347      12.96344744       0.00000000 NULL
P        0.40724340       2.01475179       3.52560425       0.00000000 NULL
P        2.71555760       4.68645060      11.54906145       0.00000000 NULL
P        1.21646807       3.58293466       4.93999025       0.00000000 NULL
