6
Lattice="2.7742200000000006 1.3632614825766364e-15 6.2946392169843455e-16 0.10043309233269145 6.654972203312685 -2.0269113847875193e-15 0.8688624178983259 1.7111891696974566 7.402822284498938" Properties=species:S:1:pos:R:3:initial_magmoms:R:1:castep_labels:S:1 n_minim_iter=1 pbc="T T T"
P        2.25881136       5.32105114       5.86299009       0.00000000 NULL
P        2.23939196       2.43564846       1.50422980       0.00000000 NULL
P        2.42106228       3.16658885       6.64794687       0.00000000 NULL
P        2.90230467       3.21322313       3.48039766       0.00000000 NULL
P        1.44778465       4.37591351       2.49025834       0.00000000 NULL
P        1.52184051       3.68558461       4.89502222       0.00000000 NULL
6
Lattice="2.779348342570862 0.0009435219673155928 0.0009682622002384044 0.10288212945614647 6.6602226405516305 -6.0788252446763114e-05 0.8736342967294671 1.7127193201124937 7.417546162144943" Properties=species:S:1:pos:R:3:initial_magmoms:R:1:castep_labels:S:1 n_minim_iter=2 pbc="T T T"
P        2.26692416       5.32602940       5.87524997       0.00000000 NULL
P        2.24480474       2.43823786       1.50789250       0.00000000 NULL
P        2.42902654       3.16974952       6.66190837       0.00000000 NULL
P        2.90992094       3.21631633       3.48802247       0.00000000 NULL
P        1.45296554       4.38018042       2.49517492       0.00000000 NULL
P        1.52743251       3.68888735       4.90529194       0.00000000 NULL
6
Lattice="2.9498898904348754 0.03303130857322071 0.03431312226462371 0.18603030910711718 6.829434651811009 -0.002740243571873776 1.035817356366757 1.761656265566714 7.908350877663286" Properties=species:S:1:pos:R:3:initial_magmoms:R:1:castep_labels:S:1 n_minim_iter=3 pbc="T T T"
P        2.54065807       5.48705503       6.28423849       0.00000000 NULL
P        2.42589922       2.52282148       1.63057947       0.00000000 NULL
P        2.69756914       3.27237217       7.12793782       0.00000000 NULL
P        3.16518949       3.31699061       3.74273138       0.00000000 NULL
P        1.62761637       4.51861114       2.65863622       0.00000000 NULL
P        1.71627203       3.79550874       5.24804794       0.00000000 NULL
6
Lattice="2.997522164928972 0.055857797632118636 0.055219249452184066 0.24251231370966286 6.788423372395444 -0.01551905835995674 1.1206017924509148 1.7429909097590432 8.041225446318537" Properties=species:S:1:pos:R:3:initial_magmoms:R:1:castep_labels:S:1 n_minim_iter=4 pbc="T T T"
P        2.66855725       5.45605341       6.39543810       0.00000000 NULL
P        2.49273233       2.52435682       1.67008582       0.00000000 NULL
P        2.81682650       3.26324479       7.25614853       0.00000000 NULL
P        3.26559359       3.30878999       3.81571723       0.00000000 NULL
P        1.71106959       4.50123881       2.69663400       0.00000000 NULL
P        1.80819028       3.77476499       5.34567319       0.00000000 NULL
6
Lattice="3.0400470335550516 0.08894431421254562 0.08586837763295194 0.32342181339041204 6.681294480777136 -0.02313346452151087 1.2361137554918689 1.715795019331299 8.131024860793787" Properties=species:S:1:pos:R:3:initial_magmoms:R:1:castep_labels:S:1 n_minim_iter=5 pbc="T T T"
P        2.83319069       5.38140720       6.48239892       0.00000000 NULL
P        2.56840145       2.51249964       1.71092592       0.00000000 NULL
P        2.96719297       3.23974566       7.35018194       0.00000000 NULL
P        3.38372124       3.28127639       3.87592989       0.00000000 NULL
P        1.81817819       4.44589663       2.72565180       0.00000000 NULL
P        1.92797825       3.72623090       5.42391648       0.00000000 NULL
6
Lattice="3.118750211128766 0.1564110594268109 0.15492762556028267 0.48811449008839225 6.477207647961588 -0.014003244226003585 1.4866576692390976 1.6911954571601473 8.227370907148442" Properties=species:S:1:pos:R:3:initial_magmoms:R:1:castep_labels:S:1 n_minim_iter=6 pbc="T T T"
P        3.17753092       5.26436167       6.61014390       0.00000000 NULL
P        2.72142620       2.49867544       1.79053581       0.00000000 NULL
P        3.28254882       3.22210872       7.47147039       0.00000000 NULL
P        3.62359790       3.24607516       3.96817874       0.00000000 NULL
P        2.03691297       4.34993113       2.77571533       0.00000000 NULL
P        2.17872703       3.65287426       5.53888436       0.00000000 NULL
6
Lattice="3.24481594579015 0.24754016885392285 0.26652301892984365 0.7112845565284316 6.365614693644997 0.035434984732040674 1.8801353995602161 1.7406940360334198 8.318637295518254" Properties=species:S:1:pos:R:3:initial_magmoms:R:1:castep_labels:S:1 n_minim_iter=7 pbc="T T T"
P        3.70234629       5.27644129       6.78320494       0.00000000 NULL
P        2.95976590       2.54377017       1.91841307       0.00000000 NULL
P        3.76999307       3.30724404       7.61860143       0.00000000 NULL
P        3.98633742       3.29267955       4.08529639       0.00000000 NULL
P        2.35614238       4.34720838       2.86367009       0.00000000 NULL
P        2.55744049       3.67335644       5.70175055       0.00000000 NULL
6
Lattice="3.2007466754758807 0.2522338401380535 0.26007713869920407 0.7209486202410268 6.423068436785229 0.022435506825126208 1.8520280111384233 1.7426926998261882 8.176696542417984" Properties=species:S:1:pos:R:3:initial_magmoms:R:1:castep_labels:S:1 n_minim_iter=8 pbc="T T T"
P        3.66254272       5.31130827       6.65534771       0.00000000 NULL
P        2.92906965       2.56196013       1.88779456       0.00000000 NULL
P        3.72086734       3.32598094       7.47860912       0.00000000 NULL
P        3.92945898       3.30720755       3.97359086       0.00000000 NULL
P        2.33735940       4.39367042       2.80624794       0.00000000 NULL
P        2.52928181       3.70555854       5.63779968       0.00000000 NULL
6
Lattice="3.218767933323352 0.2630790398488046 0.2936626730593445 0.7476171733002233 6.4845783556194965 0.023737972282285344 1.9539824070238914 1.7619007042447146 8.243796359117733" Properties=species:S:1:pos:R:3:initial_magmoms:R:1:castep_labels:S:1 n_minim_iter=9 pbc="T T T"
P        3.77169996       5.36786803       6.72719136       0.00000000 NULL
P        2.97321638       2.59054484       1.93154717       0.00000000 NULL
P        3.83223872       3.36468510       7.55958405       0.00000000 NULL
P        3.99847320       3.34052263       4.01436267       0.00000000 NULL
P        2.39429027       4.44764161       2.84062196       0.00000000 NULL
P        2.60974578       3.74861168       5.71131947       0.00000000 NULL
6
Lattice="3.202659011119978 0.26563985065880896 0.2993523246210152 0.7531770264796787 6.471960333416583 0.023805702273518765 1.9656992405843732 1.7592806421819895 8.20380879804613" Properties=species:S:1:pos:R:3:initial_magmoms:R:1:castep_labels:S:1 n_minim_iter=10 pbc="T T T"
P        3.77580250       5.35648757       6.69813103       0.00000000 NULL
P        2.96708969       2.58744475       1.93174663       0.00000000 NULL
P        3.83531489       3.36198194       7.52546437       0.00000000 NULL
P        3.98936627       3.33325599       3.98713146       0.00000000 NULL
P        2.39562294       4.44373502       2.82956063       0.00000000 NULL
P        2.61371259       3.74586166       5.69809727       0.00000000 NULL
6
Lattice="3.1994441810870806 0.2702969057929239 0.3117598198481223 0.7642322770168687 6.492976270602978 0.02433958946053345 2.0006735178495827 1.766193884124806 8.209006080325553" Properties=species:S:1:pos:R:3:initial_magmoms:R:1:castep_labels:S:1 n_minim_iter=11 pbc="T T T"
P        3.80934710       5.37501418       6.70900197       0.00000000 NULL
P        2.97666751       2.59741001       1.94601335       0.00000000 NULL
P        3.86874149       3.37642846       7.53748598       0.00000000 NULL
P        4.00480305       3.34372571       3.98661464       0.00000000 NULL
P        2.41299661       4.46486244       2.83599091       0.00000000 NULL
P        2.63807171       3.76265267       5.71684902       0.00000000 NULL
6
Lattice="3.17118616366984 0.2881316708686027 0.3565386058532947 0.8059924206820678 6.548855007580849 0.024098410885536693 2.122313374247185 1.783910087328855 8.191589262180537" Properties=species:S:1:pos:R:3:initial_magmoms:R:1:castep_labels:S:1 n_minim_iter=12 pbc="T T T"
P        3.91846471       5.42104535       6.71849690       0.00000000 NULL
P        2.99960810       2.62600000       1.99345481       0.00000000 NULL
P        3.97636735       3.41875987       7.54761381       0.00000000 NULL
P        4.04384195       3.36937618       3.95661145       0.00000000 NULL
P        2.46949739       4.53066701       2.84600118       0.00000000 NULL
P        2.71686578       3.81374683       5.76596499       0.00000000 NULL
6
Lattice="3.2247791795777805 0.3098572184660994 0.40257077068379366 0.8600492105827041 6.664668112692478 0.028508698132420504 2.275332750774553 1.8233432209132636 8.38296965240125" Properties=species:S:1:pos:R:3:initial_magmoms:R:1:castep_labels:S:1 n_minim_iter=13 pbc="T T T"
P        4.10587548       5.52300878       6.90148423       0.00000000 NULL
P        3.08714411       2.67712391       2.08365061       0.00000000 NULL
P        4.16599967       3.49410022       7.75739696       0.00000000 NULL
P        4.18912678       3.43315778       4.02986727       0.00000000 NULL
P        2.57696598       4.64503452       2.92551048       0.00000000 NULL
P        2.83331791       3.90127632       5.94403011       0.00000000 NULL
6
Lattice="3.1659135446429505 0.3019055440443209 0.379937115959814 0.8388431670838628 6.54629621706038 0.025434464738483018 2.191595382929746 1.787981714730943 8.241384071473112" Properties=species:S:1:pos:R:3:initial_magmoms:R:1:castep_labels:S:1 n_minim_iter=14 pbc="T T T"
P        3.99297005       5.41528199       6.77544513       0.00000000 NULL
P        3.02074172       2.63021069       2.04072169       0.00000000 NULL
P        4.04974700       3.43081188       7.61280310       0.00000000 NULL
P        4.09398651       3.36886180       3.93709721       0.00000000 NULL
P        2.51311922       4.55800458       2.86856634       0.00000000 NULL
P        2.74983396       3.83156189       5.84533250       0.00000000 NULL
