12
Lattice="2.7965899999999997 0.0 0.0 0.0 9.30854 0.0 0.0 0.0 10.29551" Properties=species:S:1:pos:R:3:initial_magmoms:R:1:castep_labels:S:1 n_minim_iter=1 pbc="T T T"
P        2.09393446       7.49078972       7.29064701       0.00000000 NULL
P        2.10095054       1.81775028       2.14289201       0.00000000 NULL
P        0.70265554       2.83651972       8.15261799       0.00000000 NULL
P        0.69563946       6.47202028       3.00486299       0.00000000 NULL
P        1.19023206       0.79079305       8.61125002       0.00000000 NULL
P        0.20806294       8.51774695       3.46349502       0.00000000 NULL
P        1.60635794       5.44506305       6.83201498       0.00000000 NULL
P        2.58852706       3.86347695       1.68425998       0.00000000 NULL
P        2.44592894       7.92302153       1.60905334       0.00000000 NULL
P        1.74895606       1.38551847       6.75680834       0.00000000 NULL
P        0.35066106       3.26875153       3.53870166       0.00000000 NULL
P        1.04763394       6.03978847       8.68645666       0.00000000 NULL
12
Lattice="2.796099445635569 0.0 0.0 0.0 9.312194458746118 0.0 0.0 0.0 10.308829302408672" Properties=species:S:1:pos:R:3:initial_magmoms:R:1:castep_labels:S:1 n_minim_iter=2 pbc="T T T"
P        2.09355070       7.49372516       7.30012749       0.00000000 NULL
P        2.10059847       1.81846930       2.14571283       0.00000000 NULL
P        0.70254875       2.83762793       8.16311647       0.00000000 NULL
P        0.69550097       6.47456652       3.00870182       0.00000000 NULL
P        1.18996525       0.79097539       8.62266314       0.00000000 NULL
P        0.20808448       8.52121907       3.46824849       0.00000000 NULL
P        1.60613420       5.44707262       6.84058081       0.00000000 NULL
P        2.58801497       3.86512184       1.68616616       0.00000000 NULL
P        2.44545736       7.92599786       1.61093685       0.00000000 NULL
P        1.74869181       1.38619660       6.76535150       0.00000000 NULL
P        0.35064209       3.26990063       3.54347780       0.00000000 NULL
P        1.04740764       6.04229383       8.69789245       0.00000000 NULL
12
Lattice="2.7823829737566985 0.0 0.0 0.0 9.400950062984025 0.0 0.0 0.0 10.64313279675996" Properties=species:S:1:pos:R:3:initial_magmoms:R:1:castep_labels:S:1 n_minim_iter=3 pbc="T T T"
P        2.08284628       7.56496907       7.53815615       0.00000000 NULL
P        2.09072818       1.83598099       2.21658975       0.00000000 NULL
P        0.69953669       2.86449404       8.42654305       0.00000000 NULL
P        0.69165479       6.53645602       3.10497665       0.00000000 NULL
P        1.18269421       0.79528635       8.90932715       0.00000000 NULL
P        0.20849728       8.60566371       3.58776075       0.00000000 NULL
P        1.59968877       5.49576138       7.05537204       0.00000000 NULL
P        2.57388570       3.90518868       1.73380564       0.00000000 NULL
P        2.43243382       7.99811601       1.65811375       0.00000000 NULL
P        1.74114064       1.40283406       6.97968015       0.00000000 NULL
P        0.34994915       3.29764098       3.66345265       0.00000000 NULL
P        1.04124234       6.10330909       8.98501905       0.00000000 NULL
12
Lattice="2.736485066174759 0.0 0.0 0.0 9.377558343809369 0.0 0.0 0.0 10.738758226876039" Properties=species:S:1:pos:R:3:initial_magmoms:R:1:castep_labels:S:1 n_minim_iter=4 pbc="T T T"
P        2.04763057       7.54495579       7.60769115       0.00000000 NULL
P        2.05709703       1.83260255       2.23831204       0.00000000 NULL
P        0.68885450       2.85617662       8.50044619       0.00000000 NULL
P        0.67938804       6.52138172       3.13106707       0.00000000 NULL
P        1.16254635       0.79150630       8.99357442       0.00000000 NULL
P        0.20569618       8.58605205       3.62419531       0.00000000 NULL
P        1.57393872       5.48028547       7.11456292       0.00000000 NULL
P        2.53078888       3.89727287       1.74518381       0.00000000 NULL
P        2.39242533       7.97521808       1.67124709       0.00000000 NULL
P        1.71230227       1.40234026       7.04062620       0.00000000 NULL
P        0.34405974       3.28643891       3.69813202       0.00000000 NULL
P        1.02418280       6.09111943       9.06751114       0.00000000 NULL
12
Lattice="2.6756128286762784 0.0 0.0 0.0 9.421895824958128 0.0 0.0 0.0 10.90049816598142" Properties=species:S:1:pos:R:3:initial_magmoms:R:1:castep_labels:S:1 n_minim_iter=5 pbc="T T T"
P        2.00005666       7.57942669       7.72575733       0.00000000 NULL
P        2.01336258       1.84246913       2.27550825       0.00000000 NULL
P        0.67555617       2.86847878       8.62498992       0.00000000 NULL
P        0.66225024       6.55341704       3.17474084       0.00000000 NULL
P        1.13605600       0.79102112       9.13731558       0.00000000 NULL
P        0.20175041       8.63087471       3.68706649       0.00000000 NULL
P        1.53955683       5.50196903       7.21343167       0.00000000 NULL
P        2.47386242       3.91992680       1.76318259       0.00000000 NULL
P        2.34030587       8.00748055       1.69303438       0.00000000 NULL
P        1.67311337       1.41441527       7.14328347       0.00000000 NULL
P        0.33530695       3.29653264       3.75721470       0.00000000 NULL
P        1.00249946       6.12536319       9.20746378       0.00000000 NULL
12
Lattice="2.661296046909834 0.0 0.0 0.0 9.47519462279004 0.0 0.0 0.0 10.945972687090274" Properties=species:S:1:pos:R:3:initial_magmoms:R:1:castep_labels:S:1 n_minim_iter=6 pbc="T T T"
P        1.98577843       7.62163007       7.76164891       0.00000000 NULL
P        2.00616564       1.85356456       2.28866256       0.00000000 NULL
P        0.67551761       2.88403275       8.65731012       0.00000000 NULL
P        0.65513041       6.59116187       3.18432378       0.00000000 NULL
P        1.13016902       0.79073238       9.18366462       0.00000000 NULL
P        0.20047900       8.68446224       3.71067828       0.00000000 NULL
P        1.53112702       5.52832969       7.23529441       0.00000000 NULL
P        2.46081705       3.94686493       1.76230807       0.00000000 NULL
P        2.33103930       8.04736547       1.69737009       0.00000000 NULL
P        1.66090477       1.42782915       7.17035644       0.00000000 NULL
P        0.33025675       3.30976816       3.77561625       0.00000000 NULL
P        1.00039127       6.16542646       9.24860259       0.00000000 NULL
