8
Lattice="2.394974595552377 0.0 0.0 0.0 6.748003993808656 0.0 0.0 0.0 6.748003993808656" Properties=species:S:1:pos:R:3:initial_magmoms:R:1:castep_labels:S:1:forces:R:3 n_minim_iter=1 energy=-41.6348664406 stress="-0.005232607682624952 0.0 -0.0 0.0 0.0032073276355534136 -0.0 -0.0 -0.0 0.0032073276355534136" free_energy=-41.6348664406 pbc="T T T"
P        0.53643498       1.82712090       6.75284957       0.00000000 NULL      -0.00580300      -0.89266800      -0.30183500
P        1.73392227       4.92088310      -0.00484558       0.00000000 NULL      -0.00580200       0.89266800       0.30183500
P        2.33266592       6.75284957       4.92088310       0.00000000 NULL      -0.00580200      -0.30183500       0.89266800
P        1.13517863      -0.00484558       1.82712090       0.00000000 NULL      -0.00580200       0.30183500      -0.89266800
P        0.05263419       3.21492282       1.80089572       0.00000000 NULL       0.00580200       0.34724900      -0.53379300
P        1.25012149       3.53308117       4.94710827       0.00000000 NULL       0.00580200      -0.34724900       0.53379300
P        1.84886513       1.80089572       3.53308117       0.00000000 NULL       0.00580300      -0.53379300      -0.34724900
P        0.65137784       4.94710827       3.21492282       0.00000000 NULL       0.00580200       0.53379300       0.34724900
8
Lattice="2.4536959579330064 0.0 0.0 0.0 6.648553926708443 0.0 0.0 0.0 6.648553926708443" Properties=species:S:1:pos:R:3:initial_magmoms:R:1:castep_labels:S:1:forces:R:3 n_minim_iter=2 energy=-41.769464036447 stress="0.04872766356610273 0.0 -0.0 0.0 -0.004465644513363467 -0.0 -0.0 -0.0 -0.004465644513363467" free_energy=-41.769464036447 pbc="T T T"
P        0.54933527       1.76286000       6.64070469       0.00000000 NULL       0.07110300      -0.67445600      -0.34274200
P        1.77618324       4.88569392       0.00784923       0.00000000 NULL       0.07110400       0.67445600       0.34274200
P        2.38960723       6.64070469       4.88569392       0.00000000 NULL       0.07110400      -0.34274200       0.67445600
P        1.16275926       0.00784923       1.76286000       0.00000000 NULL       0.07110400       0.34274200      -0.67445600
P        0.05417703       3.18206496       1.75203027       0.00000000 NULL      -0.07110400       0.39127200      -0.40196700
P        1.28102501       3.46648896       4.89652366       0.00000000 NULL      -0.07110400      -0.39127200       0.40196700
P        1.89444900       1.75203027       3.46648896       0.00000000 NULL      -0.07110400      -0.40196700      -0.39127200
P        0.66760102       4.89652366       3.18206496       0.00000000 NULL      -0.07110400       0.40196700       0.39127200
8
Lattice="2.404428511062112 0.0 0.0 0.0 6.51298943237101 0.0 0.0 0.0 6.51298943237101" Properties=species:S:1:pos:R:3:initial_magmoms:R:1:castep_labels:S:1:forces:R:3 n_minim_iter=3 energy=-42.082723063914 stress="0.019670560380274163 0.0 -0.0 0.0 0.0013860682365580696 -0.0 -0.0 -0.0 0.0013860682365580696" free_energy=-42.082723063914 pbc="T T T"
P        0.53874231       1.65417685       6.47939781       0.00000000 NULL       0.09625400      -0.15838000      -0.26229500
P        1.74095656       4.85881258       0.03359162       0.00000000 NULL       0.09625500       0.15838000       0.26229500
P        2.34206369       6.47939781       4.85881258       0.00000000 NULL       0.09625500      -0.26229500       0.15838000
P        1.13984943       0.03359162       1.65417685       0.00000000 NULL       0.09625500       0.26229500      -0.15838000
P        0.05265214       3.14694748       1.67282585       0.00000000 NULL      -0.09625500       0.25417700      -0.22909900
P        1.25486640       3.36604195       4.84016358       0.00000000 NULL      -0.09625500      -0.25417700       0.22909900
P        1.85597353       1.67282585       3.36604195       0.00000000 NULL      -0.09625400      -0.22909900      -0.25417700
P        0.65375927       4.84016358       3.14694748       0.00000000 NULL      -0.09625500       0.22909800       0.25417700
8
Lattice="2.3839786117677333 0.0 0.0 0.0 6.3131424534180045 0.0 0.0 0.0 6.3131424534180045" Properties=species:S:1:pos:R:3:initial_magmoms:R:1:castep_labels:S:1:forces:R:3 n_minim_iter=4 energy=-42.130409014099 stress="0.0018368620743335225 0.0 0.0 0.0 -0.00766781775555166 -0.0 0.0 -0.0 -0.00766781775555166" free_energy=-42.130409014099 pbc="T T T"
P        0.54048707       1.60284973       6.26673998       0.00000000 NULL       0.13690800      -0.18077900      -0.27576100
P        1.73247638       4.71029272       0.04640247       0.00000000 NULL       0.13690900       0.18077900       0.27576100
P        2.32847103       6.26673998       4.71029272       0.00000000 NULL       0.13690900      -0.27576100       0.18077900
P        1.13648172       0.04640247       1.60284973       0.00000000 NULL       0.13690800       0.27576100      -0.18077900
P        0.04587752       3.06252398       1.61017400       0.00000000 NULL      -0.13690900       0.26769500      -0.23157500
P        1.23786683       3.25061848       4.70296845       0.00000000 NULL      -0.13690800      -0.26769500       0.23157500
P        1.83386148       1.61017400       3.25061848       0.00000000 NULL      -0.13690800      -0.23157500      -0.26769500
P        0.64187217       4.70296845       3.06252398       0.00000000 NULL      -0.13690900       0.23157500       0.26769500
8
Lattice="2.3870313779203487 0.0 0.0 0.0 6.282283932392524 0.0 0.0 0.0 6.282283932392524" Properties=species:S:1:pos:R:3:initial_magmoms:R:1:castep_labels:S:1:forces:R:3 n_minim_iter=5 energy=-42.173509588695 stress="-0.00017397456671020413 -0.0 -0.0 -0.0 -0.0085397204642888 0.0 -0.0 0.0 -0.0085397204642888" free_energy=-42.173509588695 pbc="T T T"
P        0.55863359       1.59925144       6.20603673       0.00000000 NULL       0.09261600      -0.28043900       0.06949800
P        1.75214928       4.68303250       0.07624720       0.00000000 NULL       0.09261500       0.28043900      -0.06949800
P        2.34890712       6.20603673       4.68303250       0.00000000 NULL       0.09261500       0.06949800       0.28043900
P        1.15539143       0.07624720       1.59925144       0.00000000 NULL       0.09261500      -0.06949800      -0.28043900
P        0.02848188       3.07375819       1.58146322       0.00000000 NULL      -0.09261500      -0.04377200      -0.03841300
P        1.22199756       3.20852574       4.70082071       0.00000000 NULL      -0.09261500       0.04377200       0.03841300
P        1.81875541       1.58146322       3.20852574       0.00000000 NULL      -0.09261600      -0.03841300       0.04377200
P        0.62523972       4.70082071       3.07375819       0.00000000 NULL      -0.09261500       0.03841300      -0.04377200
8
Lattice="2.386958851501429 0.0 0.0 0.0 6.291822608680884 0.0 0.0 0.0 6.291822608680884" Properties=species:S:1:pos:R:3:initial_magmoms:R:1:castep_labels:S:1:forces:R:3 n_minim_iter=6 energy=-42.203889664097 stress="0.0015476338701284741 -0.0 0.0 -0.0 -0.005242736729086748 0.0 0.0 0.0 -0.005242736729086748" free_energy=-42.203889664097 pbc="T T T"
P        0.59257019       1.58278232       6.22044854       0.00000000 NULL      -0.00118300      -0.10094700      -0.00450000
P        1.78604961       4.70904029       0.07137407       0.00000000 NULL      -0.00118200       0.10094700       0.00450000
P        2.38278933       6.22044854       4.70904029       0.00000000 NULL      -0.00118200      -0.00450000       0.10094700
P        1.18930990       0.07137407       1.58278232       0.00000000 NULL      -0.00118200       0.00450000      -0.10094700
P       -0.00547252       3.07202384       1.57414308       0.00000000 NULL       0.00118300       0.02273600       0.01730600
P        1.18800690       3.21979876       4.71767952       0.00000000 NULL       0.00118200      -0.02273600      -0.01730600
P        1.78474661       1.57414308       3.21979876       0.00000000 NULL       0.00118200       0.01730600      -0.02273600
P        0.59126719       4.71767952       3.07202384       0.00000000 NULL       0.00118200      -0.01730600       0.02273600
8
Lattice="2.387763861186984 0.0 0.0 0.0 6.318310436707309 0.0 0.0 0.0 6.318310436707309" Properties=species:S:1:pos:R:3:initial_magmoms:R:1:castep_labels:S:1:forces:R:3 n_minim_iter=7 energy=-42.206840284307 stress="0.004731330448258708 -0.0 0.0 -0.0 -0.0006864100914181092 0.0 0.0 0.0 -0.0006864100914181092" free_energy=-42.206840284307 pbc="T T T"
P        0.59046552       1.58481018       6.24507809       0.00000000 NULL       0.00502400      -0.03410100       0.01976200
P        1.78434745       4.73350025       0.07323235       0.00000000 NULL       0.00502400       0.03410100      -0.01976200
P        2.38128842       6.24507809       4.73350025       0.00000000 NULL       0.00502400       0.01976200       0.03410100
P        1.18740649       0.07323235       1.58481018       0.00000000 NULL       0.00502400      -0.01976200      -0.03410100
P       -0.00316984       3.08799644       1.58621284       0.00000000 NULL      -0.00502400      -0.00917600      -0.05252600
P        1.19071209       3.23031400       4.73209760       0.00000000 NULL      -0.00502400       0.00917600       0.05252500
P        1.78765305       1.58621284       3.23031400       0.00000000 NULL      -0.00502400      -0.05252500       0.00917600
P        0.59377112       4.73209760       3.08799644       0.00000000 NULL      -0.00502400       0.05252500      -0.00917600
8
Lattice="2.386584641399921 0.0 0.0 0.0 6.329764999990329 0.0 0.0 0.0 6.329764999990329" Properties=species:S:1:pos:R:3:initial_magmoms:R:1:castep_labels:S:1:forces:R:3 n_minim_iter=8 energy=-42.207564904399 stress="0.0037650829402490213 -0.0 0.0 -0.0 0.0006829062718689547 0.0 0.0 0.0 0.0006829062718689547" free_energy=-42.207564904399 pbc="T T T"
P        0.58872723       1.58774538       6.25828487       0.00000000 NULL       0.00871500      -0.04569500       0.00374100
P        1.78201955       4.74201962       0.07148013       0.00000000 NULL       0.00871600       0.04569500      -0.00374100
P        2.37866571       6.25828487       4.74201962       0.00000000 NULL       0.00871700       0.00374100       0.04569400
P        1.18537339       0.07148013       1.58774538       0.00000000 NULL       0.00871600      -0.00374100      -0.04569400
P       -0.00172158       3.09303677       1.58445973       0.00000000 NULL      -0.00871500       0.00529300      -0.00548300
P        1.19157074       3.23672823       4.74530527       0.00000000 NULL      -0.00871600      -0.00529300       0.00548300
P        1.78821690       1.58445973       3.23672823       0.00000000 NULL      -0.00871600      -0.00548300      -0.00529300
P        0.59492458       4.74530527       3.09303677       0.00000000 NULL      -0.00871700       0.00548300       0.00529300
8
Lattice="2.3833956873007294 0.0 0.0 0.0 6.32542970916307 0.0 0.0 0.0 6.32542970916307" Properties=species:S:1:pos:R:3:initial_magmoms:R:1:castep_labels:S:1:forces:R:3 n_minim_iter=9 energy=-42.208491525233 stress="-0.0007566938606549498 -0.0 0.0 -0.0 8.703657210970181e-06 0.0 0.0 0.0 8.703657210970181e-06" free_energy=-42.208491525233 pbc="T T T"
P        0.59027117       1.58142866       6.25627403       0.00000000 NULL       0.00211000      -0.00000800       0.00211500
P        1.78196901       4.74400105       0.06915568       0.00000000 NULL       0.00211000       0.00000800      -0.00211500
P        2.37781793       6.25627403       4.74400105       0.00000000 NULL       0.00211100       0.00211500       0.00000800
P        1.18612009       0.06915568       1.58142866       0.00000000 NULL       0.00211000      -0.00211500      -0.00000800
P       -0.00404986       3.09328216       1.58161398       0.00000000 NULL      -0.00211000       0.00510400      -0.00232400
P        1.18764799       3.23214755       4.74381573       0.00000000 NULL      -0.00211000      -0.00510400       0.00232400
P        1.78349691       1.58161398       3.23214755       0.00000000 NULL      -0.00211000      -0.00232400      -0.00510400
P        0.59179906       4.74381573       3.09328216       0.00000000 NULL      -0.00211100       0.00232400       0.00510400
