10
Lattice="4.645139999999998 -8.287058426582814e-16 1.7096989904792307e-16 -2.085027603976993 5.492844432373263 8.7519302513819825e-16 -1.4044316249778126 -1.0806507568357675 9.019925957291031" Properties=species:S:1:pos:R:3:initial_magmoms:R:1:castep_labels:S:1 n_minim_iter=1 pbc="T T T"
P        0.06591763      -0.02824069       3.29486891       0.00000000 NULL
P        1.18854043      -0.25294879       5.00479161       0.00000000 NULL
P       -2.05697135       3.61706157       5.33002488       0.00000000 NULL
P        0.59571899       1.88744110       1.55784675       0.00000000 NULL
P       -0.53164723       3.05658292       0.15041538       0.00000000 NULL
P        3.53757544       0.50452816       0.41092618       0.00000000 NULL
P        2.39836174       2.14230650       0.65894708       0.00000000 NULL
P       -0.09863951       2.09463298       8.30825019       0.00000000 NULL
P        1.64496282       1.25343253       3.16531481       0.00000000 NULL
P        0.25972058       4.28312498       6.50186209       0.00000000 NULL
10
Lattice="4.654155966427764 0.0007935703508603019 -0.0002306578691367453 -2.0881361390039235 5.498971994415377 -0.004706260119218215 -1.4077900593161152 -1.0900645635452841 9.03224408586958" Properties=species:S:1:pos:R:3:initial_magmoms:R:1:castep_labels:S:1 n_minim_iter=2 pbc="T T T"
P        0.06560017      -0.03134262       3.29890458       0.00000000 NULL
P        1.19070599      -0.25724531       5.01138160       0.00000000 NULL
P       -2.06072851       3.61619717       5.33371153       0.00000000 NULL
P        0.59681105       1.88833626       1.55812237       0.00000000 NULL
P       -0.53212006       3.06024175       0.14792368       0.00000000 NULL
P        3.54469184       0.50516443       0.41081727       0.00000000 NULL
P        2.40326021       2.14463239       0.65782795       0.00000000 NULL
P       -0.09880552       2.08994642       8.31648943       0.00000000 NULL
P        1.64849548       1.25249402       3.16831779       0.00000000 NULL
P        0.26068548       4.28249144       6.50623652       0.00000000 NULL
10
Lattice="4.841163911024005 0.017292619675500193 -0.0057944133830460445 -2.152566923743212 5.62658526562006 -0.10482119609773641 -1.4789728965250528 -1.2901183335334592 9.290373890360275" Properties=species:S:1:pos:R:3:initial_magmoms:R:1:castep_labels:S:1 n_minim_iter=3 pbc="T T T"
P        0.05822703      -0.09748233       3.38331286       0.00000000 NULL
P        1.23491814      -0.34896364       5.14910004       0.00000000 NULL
P       -2.13962209       3.59581148       5.40988590       0.00000000 NULL
P        0.61887375       1.90619831       1.56308636       0.00000000 NULL
P       -0.54180551       3.13653434       0.09465309       0.00000000 NULL
P        3.69246469       0.51814829       0.40786309       0.00000000 NULL
P        2.50461198       2.19274733       0.63324758       0.00000000 NULL
P       -0.10352204       1.98883141       8.48773026       0.00000000 NULL
P        1.72147173       1.23146256       3.23041529       0.00000000 NULL
P        0.27966578       4.26635810       6.59597175       0.00000000 NULL
10
Lattice="4.872486296963891 0.015833272576623602 -0.01650937925729411 -2.168352025138229 5.655441089798409 -0.16752422561581998 -1.5089098421623146 -1.4060892156621878 9.394019917135644" Properties=species:S:1:pos:R:3:initial_magmoms:R:1:castep_labels:S:1 n_minim_iter=4 pbc="T T T"
P        0.04810461      -0.14048614       3.41398726       0.00000000 NULL
P        1.23320343      -0.41088296       5.20111440       0.00000000 NULL
P       -2.16798898       3.54951180       5.42391533       0.00000000 NULL
P        0.61333650       1.89517590       1.55295473       0.00000000 NULL
P       -0.54477435       3.15451064       0.05918076       0.00000000 NULL
P        3.71916929       0.51280364       0.39749035       0.00000000 NULL
P        2.51574095       2.19488687       0.60781283       0.00000000 NULL
P       -0.12251364       1.89870279       8.53770649       0.00000000 NULL
P        1.72772529       1.19868655       3.24464292       0.00000000 NULL
P        0.26536326       4.20720995       6.60432093       0.00000000 NULL
10
Lattice="4.857782809455631 0.009677368293112014 -0.0368632724445964 -2.16903149814452 5.659685438550046 -0.2334673940470716 -1.542555369318661 -1.5278087988497868 9.470682309918963" Properties=species:S:1:pos:R:3:initial_magmoms:R:1:castep_labels:S:1 n_minim_iter=5 pbc="T T T"
P        0.03098315      -0.18765819       3.43305671       0.00000000 NULL
P        1.20931415      -0.48024175       5.23417224       0.00000000 NULL
P       -2.19025049       3.48070065       5.41975763       0.00000000 NULL
P        0.59621488       1.87192655       1.53341131       0.00000000 NULL
P       -0.54503456       3.15830452       0.01995024       0.00000000 NULL
P        3.71045658       0.50128187       0.37767997       0.00000000 NULL
P        2.49832552       2.18367727       0.57173402       0.00000000 NULL
P       -0.15945190       1.78663692       8.55616290       0.00000000 NULL
P        1.70909651       1.15354833       3.24239992       0.00000000 NULL
P        0.23029107       4.11769644       6.58292045       0.00000000 NULL
10
Lattice="4.85538931558532 0.009294954876107328 -0.03848605015844949 -2.168409350398472 5.6593142911898555 -0.23714133463689713 -1.5448938523331512 -1.5348155796709917 9.473617288894127" Properties=species:S:1:pos:R:3:initial_magmoms:R:1:castep_labels:S:1 n_minim_iter=6 pbc="T T T"
P        0.02968427      -0.19039167       3.43355415       0.00000000 NULL
P        1.20703690      -0.48430466       5.23504544       0.00000000 NULL
P       -2.19134889       3.47624472       5.41873831       0.00000000 NULL
P        0.59490104       1.87034895       1.53193003       0.00000000 NULL
P       -0.54489715       3.15816548       0.01767606       0.00000000 NULL
P        3.70874440       0.50053840       0.37611966       0.00000000 NULL
P        2.49642143       2.18278749       0.56925159       0.00000000 NULL
P       -0.16236027       1.77980485       8.55574994       0.00000000 NULL
P        1.70711366       1.15075520       3.24147029       0.00000000 NULL
P        0.22750128       4.11195632       6.58040572       0.00000000 NULL
10
Lattice="4.744961836095421 -0.00668736122153945 -0.11370368638716023 -2.1377416058352003 5.645361661377148 -0.40842928868796463 -1.653846082624663 -1.8625448505645799 9.615288993867214" Properties=species:S:1:pos:R:3:initial_magmoms:R:1:castep_labels:S:1 n_minim_iter=7 pbc="T T T"
P       -0.03029562      -0.31745422       3.45880226       0.00000000 NULL
P        1.10125177      -0.67365657       5.27851518       0.00000000 NULL
P       -2.24121034       3.27015647       5.37419163       0.00000000 NULL
P        0.53524777       1.79871067       1.46427472       0.00000000 NULL
P       -0.53766589       3.15369393      -0.08871485       0.00000000 NULL
P        3.62965995       0.46760785       0.30388542       0.00000000 NULL
P        2.40951713       2.14406510       0.45424245       0.00000000 NULL
P       -0.29635991       1.46344352       8.54114232       0.00000000 NULL
P        1.61564182       1.02211896       3.19990428       0.00000000 NULL
P        0.09990598       3.84820363       6.46709050       0.00000000 NULL
10
Lattice="4.60808923949984 -0.017082943051426238 -0.2280024824815009 -2.0885973758756613 5.625111765910682 -0.5895005793708886 -1.831990224922751 -2.2360893338044865 9.675812128418222" Properties=species:S:1:pos:R:3:initial_magmoms:R:1:castep_labels:S:1 n_minim_iter=8 pbc="T T T"
P       -0.11731972      -0.45858005       3.44740115       0.00000000 NULL
P        0.94426808      -0.88745562       5.25764448       0.00000000 NULL
P       -2.31712542       3.02898822       5.27424148       0.00000000 NULL
P        0.46589990       1.71998403       1.36788642       0.00000000 NULL
P       -0.52608836       3.14590634      -0.20754982       0.00000000 NULL
P        3.52724769       0.43346109       0.19529993       0.00000000 NULL
P        2.30504799       2.10660588       0.29894676       0.00000000 NULL
P       -0.49716513       1.10278153       8.42937113       0.00000000 NULL
P        1.48789248       0.88073649       3.09853236       0.00000000 NULL
P       -0.08089893       3.55001831       6.25884287       0.00000000 NULL
10
Lattice="4.600824873017686 -0.03156305128914446 -0.345885072603598 -2.1024592997946465 5.678958712863178 -0.8255330451065147 -2.055329454441328 -2.7155104197488877 9.810126394982046" Properties=species:S:1:pos:R:3:initial_magmoms:R:1:castep_labels:S:1 n_minim_iter=9 pbc="T T T"
P       -0.20738694      -0.63226061       3.45524986       0.00000000 NULL
P        0.81600210      -1.15938720       5.27699170       0.00000000 NULL
P       -2.45518384       2.77831042       5.17665311       0.00000000 NULL
P        0.41468004       1.65246930       1.26452448       0.00000000 NULL
P       -0.53262206       3.18202654      -0.35710107       0.00000000 NULL
P        3.52238667       0.38900913       0.08219649       0.00000000 NULL
P        2.25968926       2.09251944       0.12180231       0.00000000 NULL
P       -0.70859170       0.68413911       8.35160981       0.00000000 NULL
P        1.40566168       0.72338303       3.00195891       0.00000000 NULL
P       -0.26424406       3.24167549       6.05221711       0.00000000 NULL
10
Lattice="4.553503604439871 -0.027661234984535123 -0.373069589951296 -2.076604703118359 5.52510429733351 -0.8804260258047638 -2.094716716887407 -2.7969440520070026 9.625001242717632" Properties=species:S:1:pos:R:3:initial_magmoms:R:1:castep_labels:S:1 n_minim_iter=10 pbc="T T T"
P       -0.22859844      -0.66545644       3.37205755       0.00000000 NULL
P        0.77239156      -1.22056020       5.17065759       0.00000000 NULL
P       -2.45403132       2.61270953       5.02469585       0.00000000 NULL
P        0.40704033       1.58779411       1.20459409       0.00000000 NULL
P       -0.52048148       3.10325461      -0.39481406       0.00000000 NULL
P        3.48302787       0.36097760       0.04486114       0.00000000 NULL
P        2.21993389       2.03168922       0.06158362       0.00000000 NULL
P       -0.75271297       0.51986934       8.13753566       0.00000000 NULL
P        1.37280711       0.65090000       2.90412869       0.00000000 NULL
P       -0.30596340       3.04270873       5.84580021       0.00000000 NULL
10
Lattice="4.633853934079479 -0.017550856479371935 -0.37267864680838914 -2.1007154767454144 5.5409581204248175 -0.9363962602345747 -2.1206031388260826 -2.895634592817227 9.67218735150635" Properties=species:S:1:pos:R:3:initial_magmoms:R:1:castep_labels:S:1 n_minim_iter=11 pbc="T T T"
P       -0.22995239      -0.69701672       3.38286511       0.00000000 NULL
P        0.79331476      -1.27142396       5.19714498       0.00000000 NULL
P       -2.47983327       2.56549384       5.01159584       0.00000000 NULL
P        0.42441045       1.58478171       1.19191820       0.00000000 NULL
P       -0.52113013       3.11625114      -0.42552495       0.00000000 NULL
P        3.54435247       0.35831061       0.04213803       0.00000000 NULL
P        2.26008826       2.04064558       0.04098840       0.00000000 NULL
P       -0.74826613       0.44338606       8.14744926       0.00000000 NULL
P        1.40730217       0.62697464       2.90469169       0.00000000 NULL
P       -0.29244179       2.99136747       5.82839418       0.00000000 NULL
10
Lattice="4.643291330214094 -0.018536224435943275 -0.37662883934606356 -2.1061167572976545 5.504465877744313 -0.955284769895216 -2.1308977226637613 -2.921999139081776 9.63445576494966" Properties=species:S:1:pos:R:3:initial_magmoms:R:1:castep_labels:S:1 n_minim_iter=12 pbc="T T T"
P       -0.23319890      -0.70688691       3.36498400       0.00000000 NULL
P        0.79125527      -1.29090409       5.17600674       0.00000000 NULL
P       -2.48732247       2.52123902       4.97513227       0.00000000 NULL
P        0.42618792       1.56957008       1.17681325       0.00000000 NULL
P       -0.52114109       3.09745367      -0.43726864       0.00000000 NULL
P        3.55021065       0.34773360       0.03528359       0.00000000 NULL
P        2.25969107       2.02496389       0.02672147       0.00000000 NULL
P       -0.75592537       0.39740762       8.09975709       0.00000000 NULL
P        1.40869017       0.60576211       2.88385884       0.00000000 NULL
P       -0.29954987       2.93682584       5.78073220       0.00000000 NULL
10
Lattice="4.66238895376324 -0.018950194553729264 -0.3813551378713726 -2.1151784746467506 5.468105811316902 -0.9809887846773925 -2.1457529933560475 -2.960376862403202 9.597348100356967" Properties=species:S:1:pos:R:3:initial_magmoms:R:1:castep_labels:S:1 n_minim_iter=13 pbc="T T T"
P       -0.23718151      -0.72070677       3.34657373       0.00000000 NULL
P        0.79097224      -1.31690533       5.15444795       0.00000000 NULL
P       -2.49951560       2.46958104       4.93408276       0.00000000 NULL
P        0.42957887       1.55346941       1.15880586       0.00000000 NULL
P       -0.52148125       3.07887603      -0.45299585       0.00000000 NULL
P        3.56313843       0.33598381       0.02736085       0.00000000 NULL
P        2.26376774       2.00921681       0.00915086       0.00000000 NULL
P       -0.76505049       0.34099395       8.04808627       0.00000000 NULL
P        1.41361086       0.58062194       2.86076225       0.00000000 NULL
P       -0.30678604       2.87375969       5.72684380       0.00000000 NULL
10
Lattice="4.670164371757842 -0.01954313334865816 -0.38333488107517827 -2.119369711446861 5.45473662909163 -0.9914234492050606 -2.1518101671515293 -2.97610924926732 9.58160825167002" Properties=species:S:1:pos:R:3:initial_magmoms:R:1:castep_labels:S:1 n_minim_iter=14 pbc="T T T"
P       -0.23884286      -0.72635884       3.33896926       0.00000000 NULL
P        0.79088826      -1.32756183       5.14505347       0.00000000 NULL
P       -2.50501195       2.44948916       4.91704709       0.00000000 NULL
P        0.43071997       1.54734852       1.15129160       0.00000000 NULL
P       -0.52188417       3.07190059      -0.45943080       0.00000000 NULL
P        3.56832021       0.33103085       0.02413562       0.00000000 NULL
P        2.26538661       2.00304859       0.00202693       0.00000000 NULL
P       -0.76916330       0.31864043       8.02643455       0.00000000 NULL
P        1.41550019       0.57050595       2.85106608       0.00000000 NULL
P       -0.31015949       2.84900555       5.70451067       0.00000000 NULL
10
Lattice="4.7127513773531815 -0.0235328856545568 -0.3941998727596189 -2.143203260269286 5.384736790005085 -1.047824779755143 -2.1848555498832587 -3.06140538273942 9.494518779078378" Properties=species:S:1:pos:R:3:initial_magmoms:R:1:castep_labels:S:1 n_minim_iter=15 pbc="T T T"
P       -0.24798422      -0.75693047       3.29727703       0.00000000 NULL
P        0.79059311      -1.38545080       5.09268522       0.00000000 NULL
P       -2.53597082       2.34225987       4.82382602       0.00000000 NULL
P        0.43662301       1.51491599       1.10997648       0.00000000 NULL
P       -0.52449009       3.03501104      -0.49443732       0.00000000 NULL
P        3.59649440       0.30393612       0.00683145       0.00000000 NULL
P        2.27416311       1.97002572      -0.03657200       0.00000000 NULL
P       -0.79230146       0.19871374       7.90745257       0.00000000 NULL
P        1.42576209       0.51589220       2.79774593       0.00000000 NULL
P       -0.32928872       2.71653103       5.58244968       0.00000000 NULL
10
Lattice="4.730089753874571 -0.027347463235033852 -0.3990051245737378 -2.1554965119000293 5.362714629044228 -1.0705628889250582 -2.198541112370624 -3.0964632735609885 9.460691126630582" Properties=species:S:1:pos:R:3:initial_magmoms:R:1:castep_labels:S:1 n_minim_iter=16 pbc="T T T"
P       -0.25195248      -0.76964949       3.28135438       0.00000000 NULL
P        0.79049000      -1.40940997       5.07120481       0.00000000 NULL
P       -2.55131171       2.30305728       4.78706631       0.00000000 NULL
P        0.43780136       1.50345231       1.09312198       0.00000000 NULL
P       -0.52694922       3.02269257      -0.50876471       0.00000000 NULL
P        3.60745044       0.29202777      -0.00004120       0.00000000 NULL
P        2.27744446       1.95752706      -0.05195140       0.00000000 NULL
P       -0.80389273       0.15254471       7.86035288       0.00000000 NULL
P        1.42929627       0.49412148       2.77620001       0.00000000 NULL
P       -0.33944278       2.66676746       5.53418125       0.00000000 NULL
10
Lattice="4.774294582995359 -0.03738377670425233 -0.41132148470210816 -2.1872062553107496 5.3036584471910855 -1.128529453764525 -2.2334872209203893 -3.185190426814148 9.372819396345127" Properties=species:S:1:pos:R:3:initial_magmoms:R:1:castep_labels:S:1 n_minim_iter=17 pbc="T T T"
P       -0.26223683      -0.80208758       3.24040109       0.00000000 NULL
P        0.79055556      -1.47049136       5.01501417       0.00000000 NULL
P       -2.59127474       2.20115725       4.69252290       0.00000000 NULL
P        0.44079439       1.47335091       1.04940615       0.00000000 NULL
P       -0.53298739       2.98902117      -0.54563107       0.00000000 NULL
P        3.63477102       0.26135191      -0.01710301       0.00000000 NULL
P        2.28607895       1.92434428      -0.09111689       0.00000000 NULL
P       -0.83426400       0.03392174       7.73873061       0.00000000 NULL
P        1.43856991       0.43777679       2.72038634       0.00000000 NULL
P       -0.36568688       2.53745345       5.41025007       0.00000000 NULL
10
Lattice="4.799595252080006 -0.04210213298672138 -0.417692349621523 -2.2041421906058534 5.272286024526095 -1.1597942462813642 -2.2524099862977285 -3.233211558588606 9.337562863151371" Properties=species:S:1:pos:R:3:initial_magmoms:R:1:castep_labels:S:1 n_minim_iter=18 pbc="T T T"
P       -0.26776421      -0.81967388       3.22315834       0.00000000 NULL
P        0.79175224      -1.50316559       4.99101685       0.00000000 NULL
P       -2.61354837       2.14663084       4.64900751       0.00000000 NULL
P        0.44301340       1.45752874       1.02765451       0.00000000 NULL
P       -0.53550906       2.97053676      -0.56564612       0.00000000 NULL
P        3.65017595       0.24579347      -0.02496879       0.00000000 NULL
P        2.29264197       1.90710321      -0.11090713       0.00000000 NULL
P       -0.85050132      -0.02937864       7.68431205       0.00000000 NULL
P        1.44484314       0.40793629       2.69433313       0.00000000 NULL
P       -0.37864506       2.46861753       5.35267381       0.00000000 NULL
10
Lattice="4.8450450813714525 -0.05089115647833704 -0.42880059692822964 -2.234935856118761 5.210457063258684 -1.2179788094412445 -2.2856767728618506 -3.3213479539149837 9.272710000819771" Properties=species:S:1:pos:R:3:initial_magmoms:R:1:castep_labels:S:1 n_minim_iter=19 pbc="T T T"
P       -0.27770790      -0.85223470       3.19173663       0.00000000 NULL
P        0.79490780      -1.56374362       4.94675288       0.00000000 NULL
P       -2.65420031       2.04347409       4.56867224       0.00000000 NULL
P        0.44756147       1.42699493       0.98699356       0.00000000 NULL
P       -0.53929995       2.93359659      -0.60320758       0.00000000 NULL
P        3.67710957       0.21673697      -0.03797384       0.00000000 NULL
P        2.30446712       1.87387763      -0.14703627       0.00000000 NULL
P       -0.88012334      -0.14796164       7.58410002       0.00000000 NULL
P        1.45682899       0.35183069       2.64612047       0.00000000 NULL
P       -0.40189580       2.33845913       5.24691081       0.00000000 NULL
10
Lattice="4.919332481613807 -0.059809473632162484 -0.4418053486473569 -2.2788265050244076 5.137978107701173 -1.3085895658312963 -2.3313149851988912 -3.461984267588213 9.207114494850302" Properties=species:S:1:pos:R:3:initial_magmoms:R:1:castep_labels:S:1 n_minim_iter=20 pbc="T T T"
P       -0.29047400      -0.90304295       3.15750342       0.00000000 NULL
P        0.80624384      -1.65627870       4.89857345       0.00000000 NULL
P       -2.71240336       1.90077881       4.46498051       0.00000000 NULL
P        0.45882142       1.38792190       0.93030477       0.00000000 NULL
P       -0.54160734       2.88895430      -0.66134451       0.00000000 NULL
P        3.72209663       0.17943289      -0.05081286       0.00000000 NULL
P        2.32894587       1.83492724      -0.19772498       0.00000000 NULL
P       -0.91759519      -0.32054371       7.46277650       0.00000000 NULL
P        1.48118622       0.27344159       2.58490512       0.00000000 NULL
P       -0.42745309       2.15986232       5.11107983       0.00000000 NULL
10
Lattice="5.075826444220303 -0.08232297163819771 -0.4683885082808972 -2.3756927725784416 5.047224604840096 -1.5052545043182608 -2.425011617194651 -3.7778767669885527 9.122833479910948" Properties=species:S:1:pos:R:3:initial_magmoms:R:1:castep_labels:S:1 n_minim_iter=21 pbc="T T T"
P       -0.31758404      -1.01415190       3.10672497       0.00000000 NULL
P        0.83580721      -1.86447568       4.82781019       0.00000000 NULL
P       -2.84224030       1.64262757       4.27609118       0.00000000 NULL
P        0.48753402       1.32771436       0.81253457       0.00000000 NULL
P       -0.53846980       2.82495162      -0.79014722       0.00000000 NULL
P        3.81166050       0.10145805      -0.06517108       0.00000000 NULL
P        2.37743469       1.77983540      -0.30394596       0.00000000 NULL
P       -1.00580554      -0.67552545       7.25475392       0.00000000 NULL
P        1.53513306       0.11569336       2.46698299       0.00000000 NULL
P       -0.48647314       1.82688053       4.86142209       0.00000000 NULL
10
Lattice="5.10674749288361 -0.06622951375082235 -0.44774360376814865 -2.370541663990235 5.191364708477375 -1.5212376875276823 -2.3980161759304512 -3.823550804160583 9.187784042289463" Properties=species:S:1:pos:R:3:initial_magmoms:R:1:castep_labels:S:1 n_minim_iter=22 pbc="T T T"
P       -0.30262251      -1.01860348       3.13590863       0.00000000 NULL
P        0.87045136      -1.88383317       4.87650402       0.00000000 NULL
P       -2.81924839       1.74393490       4.31136836       0.00000000 NULL
P        0.51556289       1.39418446       0.82100749       0.00000000 NULL
P       -0.51218279       2.90036531      -0.79890932       0.00000000 NULL
P        3.83011807       0.12455999      -0.04120681       0.00000000 NULL
P        2.39784685       1.86281605      -0.29426926       0.00000000 NULL
P       -0.97778471      -0.64858916       7.31912012       0.00000000 NULL
P        1.56662721       0.14426394       2.48285396       0.00000000 NULL
P       -0.44804261       1.93952293       4.90945599       0.00000000 NULL
10
Lattice="5.02991362204358 -0.08598473721429581 -0.45369658820078196 -2.3594142550401873 5.079555613885188 -1.4886516489958705 -2.381749510887585 -3.7447138730536684 9.067915517608503" Properties=species:S:1:pos:R:3:initial_magmoms:R:1:castep_labels:S:1 n_minim_iter=23 pbc="T T T"
P       -0.30516344      -1.00061983       3.09435598       0.00000000 NULL
P        0.84467925      -1.85804254       4.80959502       0.00000000 NULL
P       -2.80753675       1.70561745       4.26350352       0.00000000 NULL
P        0.49428510       1.35640102       0.81155064       0.00000000 NULL
P       -0.51558298       2.83128327      -0.78295271       0.00000000 NULL
P        3.77027553       0.10452779      -0.04870645       0.00000000 NULL
P        2.34934466       1.81044052      -0.29360144       0.00000000 NULL
P       -0.99707483      -0.64923517       7.22405344       0.00000000 NULL
P        1.52885380       0.12650798       2.44477318       0.00000000 NULL
P       -0.48018693       1.88149379       4.84999656       0.00000000 NULL
10
Lattice="5.066231769268707 -0.08166712472059594 -0.46559692396966695 -2.37061055175945 5.091517756728974 -1.5011361367928568 -2.416842604580101 -3.7780266115403567 9.10834467113822" Properties=species:S:1:pos:R:3:initial_magmoms:R:1:castep_labels:S:1 n_minim_iter=24 pbc="T T T"
P       -0.31353106      -1.01093219       3.10678991       0.00000000 NULL
P        0.84238540      -1.87493300       4.82583456       0.00000000 NULL
P       -2.83505470       1.69680132       4.27857934       0.00000000 NULL
P        0.49733925       1.35804222       0.80945997       0.00000000 NULL
P       -0.51491072       2.83680570      -0.79164693       0.00000000 NULL
P        3.79603774       0.10687615      -0.05607015       0.00000000 NULL
P        2.36754147       1.81817741      -0.30456540       0.00000000 NULL
P       -1.01825097      -0.67185665       7.24655771       0.00000000 NULL
P        1.53640975       0.11998375       2.44590174       0.00000000 NULL
P       -0.49215207       1.87129682       4.86058687       0.00000000 NULL
