12
Lattice="6.70473 -6.046469884435082e-16 0.0 -3.352364999999999 5.806466505515639 0.0 0.0 0.0 7.08293" Properties=species:S:1:pos:R:3:initial_magmoms:R:1:castep_labels:S:1 n_minim_iter=1 pbc="T T T"
P        4.07509869       1.27991477       1.70812790       0.00000000 NULL
P        2.42325504       1.63737014       4.06910457       0.00000000 NULL
P        3.55874229       2.88918102       6.43008123       0.00000000 NULL
P        0.57294667       1.56337717       3.28395091       0.00000000 NULL
P       -2.28491331       4.52859155       5.64492758       0.00000000 NULL
P        1.71196766       5.52096371       0.92297424       0.00000000 NULL
P       -0.74679093       2.12590881       1.20527457       0.00000000 NULL
P       -1.13787782       5.39025202       3.56625124       0.00000000 NULL
P        1.88466977       4.09677160       5.92722790       0.00000000 NULL
P        4.38172443       1.94546183       3.60396265       0.00000000 NULL
P        2.84632283       1.03905092       5.96493932       0.00000000 NULL
P        2.82904876       2.82195317       1.24298598       0.00000000 NULL
12
Lattice="6.713617610291836 -9.32129032352863e-16 -5.557198543791945e-58 -3.3568088051459166 5.814163401807305 2.0531508973501867e-42 2.268772352293012e-58 -1.5731089451071965e-42 7.097304511756956" Properties=species:S:1:pos:R:3:initial_magmoms:R:1:castep_labels:S:1 n_minim_iter=2 pbc="T T T"
P        4.08049306       1.28153112       1.71158485       0.00000000 NULL
P        2.42640146       1.63958720       4.07735302       0.00000000 NULL
P        3.56353291       2.89304450       6.44312119       0.00000000 NULL
P        0.57349278       1.56538206       3.29050936       0.00000000 NULL
P       -2.28789388       4.53481306       5.65627753       0.00000000 NULL
P        1.71440213       5.52813110       0.92474119       0.00000000 NULL
P       -0.74765198       2.12866169       1.20767020       0.00000000 NULL
P       -1.13950704       5.39731817       3.57343837       0.00000000 NULL
P        1.88716004       4.10234637       5.93920654       0.00000000 NULL
P        4.38780987       1.94817127       3.61144298       0.00000000 NULL
P        2.85007036       1.04012296       5.97721115       0.00000000 NULL
P        2.83254720       2.82586859       1.24567481       0.00000000 NULL
12
Lattice="6.913032353849039 6.04508318649943e-16 2.6422872452639244e-44 -3.4565161769245196 5.986861635617002 2.565984000515149e-41 2.793295399850028e-44 6.740860313773504e-41 7.426567372732312" Properties=species:S:1:pos:R:3:initial_magmoms:R:1:castep_labels:S:1 n_minim_iter=3 pbc="T T T"
P        4.20159167       1.31775847       1.79082803       0.00000000 NULL
P        2.49693336       1.68929728       4.26635049       0.00000000 NULL
P        3.67102456       2.97980528       6.74187295       0.00000000 NULL
P        0.58559615       1.61024454       3.44061586       0.00000000 NULL
P       -2.35480088       4.67459823       5.91613832       0.00000000 NULL
P        1.76920578       5.68887990       0.96509340       0.00000000 NULL
P       -0.76687741       2.19026511       1.26251957       0.00000000 NULL
P       -1.17625155       5.55586440       3.73804202       0.00000000 NULL
P        1.94313001       4.22759316       6.21356448       0.00000000 NULL
P        4.52459595       2.00904929       3.78287590       0.00000000 NULL
P        2.93410662       1.06392196       6.25839836       0.00000000 NULL
P        2.91084701       2.91388979       1.30735345       0.00000000 NULL
12
Lattice="6.918778769948529 5.038416510276194e-16 8.923943540704277e-43 -3.4593893849742643 5.991838177939876 -1.1884334775249666e-40 9.578568330247501e-43 -2.3603097537224303e-40 7.531105709955604" Properties=species:S:1:pos:R:3:initial_magmoms:R:1:castep_labels:S:1 n_minim_iter=4 pbc="T T T"
P        4.20633120       1.31870351       1.81731384       0.00000000 NULL
P        2.49825522       1.68969675       4.32768241       0.00000000 NULL
P        3.67358278       2.98343732       6.83805098       0.00000000 NULL
P        0.58396248       1.60923256       3.48681581       0.00000000 NULL
P       -2.35773365       4.68149556       5.99718438       0.00000000 NULL
P        1.77377222       5.69294764       0.97644724       0.00000000 NULL
P       -0.76637686       2.18878904       1.28026473       0.00000000 NULL
P       -1.18065335       5.56114549       3.79063330       0.00000000 NULL
P        1.94703126       4.23374123       6.30100187       0.00000000 NULL
P        4.53202925       2.01177798       3.83710451       0.00000000 NULL
P        2.93562630       1.06109673       6.34747308       0.00000000 NULL
P        2.91051365       2.91896287       1.32673594       0.00000000 NULL
12
Lattice="6.891863641529655 1.4016779071376396e-15 -1.500627806684607e-42 -3.4459318207648284 5.96852899298301 -3.53160349340337e-42 -1.660245875816378e-42 -3.928815506288695e-40 7.605276664301339" Properties=species:S:1:pos:R:3:initial_magmoms:R:1:castep_labels:S:1 n_minim_iter=5 pbc="T T T"
P        4.19170098       1.31388491       1.83788297       0.00000000 NULL
P        2.48793974       1.68146701       4.37297519       0.00000000 NULL
P        3.65815579       2.97317648       6.90806741       0.00000000 NULL
P        0.57939986       1.59957281       3.51808318       0.00000000 NULL
P       -2.35036037       4.66696759       6.05317540       0.00000000 NULL
P        1.77096155       5.67051699       0.98299096       0.00000000 NULL
P       -0.76211809       2.17544187       1.29298760       0.00000000 NULL
P       -1.18088415       5.54082169       3.82807982       0.00000000 NULL
P        1.94300329       4.22079383       6.36317204       0.00000000 NULL
P        4.51882096       2.00486608       3.87518246       0.00000000 NULL
P        2.92278699       1.05268221       6.41027469       0.00000000 NULL
P        2.89618856       2.91098011       1.34009024       0.00000000 NULL
12
Lattice="6.838785246480472 -2.7797167839471914e-16 -4.522000783729765e-42 -3.4193926232402356 5.922561754478312 -7.109675485564379e-41 -4.961741359864551e-42 -2.9274860052566813e-40 7.696436857522505" Properties=species:S:1:pos:R:3:initial_magmoms:R:1:castep_labels:S:1 n_minim_iter=6 pbc="T T T"
P        4.16242543       1.30473039       1.86700858       0.00000000 NULL
P        2.46811027       1.66543040       4.43248753       0.00000000 NULL
P        3.62764321       2.95240037       6.99796649       0.00000000 NULL
P        0.57076420       1.58006789       3.55384743       0.00000000 NULL
P       -2.33639510       4.63823151       6.11932638       0.00000000 NULL
P        1.76563194       5.62682351       0.98836847       0.00000000 NULL
P       -0.75340913       2.14872699       1.30837967       0.00000000 NULL
P       -1.18183521       5.50066971       3.87385862       0.00000000 NULL
P        1.93524538       4.19572622       6.43933758       0.00000000 NULL
P        4.49271051       1.99087835       3.92104746       0.00000000 NULL
P        2.89718928       1.03632115       6.48652641       0.00000000 NULL
P        2.86827911       2.89536167       1.35556850       0.00000000 NULL
12
Lattice="6.813107018714081 2.0589319587564393e-16 -6.554131951981452e-42 -3.4065535093570407 5.900323756908454 1.9883756043622685e-41 -7.187929481618529e-42 -2.4741942434285642e-40 7.760200228814355" Properties=species:S:1:pos:R:3:initial_magmoms:R:1:castep_labels:S:1 n_minim_iter=7 pbc="T T T"
P        4.14909964       1.30111559       1.89384405       0.00000000 NULL
P        2.45880354       1.65654027       4.48057746       0.00000000 NULL
P        3.61175839       2.94266730       7.06731087       0.00000000 NULL
P        0.56398038       1.56461501       3.57508593       0.00000000 NULL
P       -2.33354667       4.62959491       6.16181934       0.00000000 NULL
P        1.76956732       5.60643700       0.98835252       0.00000000 NULL
P       -0.74598158       2.12818628       1.31798107       0.00000000 NULL
P       -1.19049865       5.48226962       3.90471448       0.00000000 NULL
P        1.93648127       4.19019102       6.49144789       0.00000000 NULL
P        4.48658047       1.98493994       3.95160746       0.00000000 NULL
P        2.88227237       1.02236113       6.53834087       0.00000000 NULL
P        2.85080872       2.89302210       1.36487405       0.00000000 NULL
12
Lattice="6.760964777485482 1.0940669365529756e-15 -7.151297671106703e-42 -3.3804823887427418 5.85516725139423 -3.484390962976307e-41 -7.782688910882008e-42 -1.114921112410974e-40 7.791809472691009" Properties=species:S:1:pos:R:3:initial_magmoms:R:1:castep_labels:S:1 n_minim_iter=8 pbc="T T T"
P        4.11856699       1.29266176       1.91406626       0.00000000 NULL
P        2.44067750       1.64205274       4.51133608       0.00000000 NULL
P        3.58220370       2.92045217       7.10860591       0.00000000 NULL
P        0.55594768       1.54212137       3.58124130       0.00000000 NULL
P       -2.32293927       4.60264175       6.17851112       0.00000000 NULL
P        1.76699261       5.56557079       0.98397148       0.00000000 NULL
P       -0.73500807       2.09839560       1.32134378       0.00000000 NULL
P       -1.19571378       5.44250512       3.91861360       0.00000000 NULL
P        1.93072287       4.16943320       6.51588343       0.00000000 NULL
P        4.46261147       1.97103700       3.96560786       0.00000000 NULL
P        2.85614545       1.00491385       6.56287768       0.00000000 NULL
P        2.82269127       2.87921581       1.36833803       0.00000000 NULL
12
Lattice="6.764710382263642 -6.972461789783612e-17 -7.603927250697572e-42 -3.382355191131821 5.858411040284653 4.883164693119564e-41 -8.268028573211537e-42 -2.6538107210089212e-40 7.830206694167392" Properties=species:S:1:pos:R:3:initial_magmoms:R:1:castep_labels:S:1 n_minim_iter=9 pbc="T T T"
P        4.12061574       1.29377467       1.92883014       0.00000000 NULL
P        2.44248974       1.64296579       4.53889904       0.00000000 NULL
P        3.58396112       2.92166999       7.14896794       0.00000000 NULL
P        0.55476284       1.53853397       3.59546834       0.00000000 NULL
P       -2.32732642       4.60870535       6.20553724       0.00000000 NULL
P        1.77256461       5.56958218       0.98539944       0.00000000 NULL
P       -0.73262665       2.09417269       1.32641435       0.00000000 NULL
P       -1.20243443       5.44579799       3.93648325       0.00000000 NULL
P        1.93506211       4.17685081       6.54655215       0.00000000 NULL
P        4.46942770       1.97281079       3.98468020       0.00000000 NULL
P        2.85614629       1.00136772       6.59474910       0.00000000 NULL
P        2.82149261       2.88423194       1.37461131       0.00000000 NULL
12
Lattice="6.748930498202706 -4.3203409661617286e-16 -7.793602065548819e-42 -3.3744652491013527 5.84474525981911 2.4592280156056603e-41 -8.455626135575412e-42 -2.4967831725514333e-40 7.841474726071201" Properties=species:S:1:pos:R:3:initial_magmoms:R:1:castep_labels:S:1 n_minim_iter=10 pbc="T T T"
P        4.11086195       1.29116187       1.93553229       0.00000000 NULL
P        2.43721394       1.63905345       4.54935720       0.00000000 NULL
P        3.57532089       2.91452936       7.16318211       0.00000000 NULL
P        0.55266513       1.53157066       3.59819182       0.00000000 NULL
P       -2.32441803       4.60033789       6.21201673       0.00000000 NULL
P        1.77175393       5.55758138       0.98436691       0.00000000 NULL
P       -0.72902997       2.08510379       1.32730961       0.00000000 NULL
P       -1.20419673       5.43355185       3.94113452       0.00000000 NULL
P        1.93322773       4.17083430       6.55495942       0.00000000 NULL
P        4.46196810       1.96858555       3.98995196       0.00000000 NULL
P        2.84832698       0.99627476       6.60377687       0.00000000 NULL
P        2.81310169       2.87988436       1.37612705       0.00000000 NULL
12
Lattice="6.7365977446973115 9.340821989320105e-16 -8.131324968902584e-42 -3.3682988723486567 5.834064781984825 7.147684613401342e-42 -8.810188570867202e-42 -3.912724020386802e-40 7.860855652101589" Properties=species:S:1:pos:R:3:initial_magmoms:R:1:castep_labels:S:1 n_minim_iter=11 pbc="T T T"
P        4.10302658       1.28922297       1.94504389       0.00000000 NULL
P        2.43328610       1.63612805       4.56532910       0.00000000 NULL
P        3.56858496       2.90871318       7.18561432       0.00000000 NULL
P        0.55071985       1.52474962       3.60418117       0.00000000 NULL
P       -2.32318621       4.59475260       6.22446638       0.00000000 NULL
P        1.77246739       5.54862676       0.98389595       0.00000000 NULL
P       -0.72532382       2.07637755       1.32923280       0.00000000 NULL
P       -1.20744058       5.42402487       3.94951802       0.00000000 NULL
P        1.93276542       4.16772657       6.56980324       0.00000000 NULL
P        4.45735684       1.96547377       3.99934703       0.00000000 NULL
P        2.84177134       0.99114364       6.61963225       0.00000000 NULL
P        2.80576945       2.87744679       1.37906181       0.00000000 NULL
12
Lattice="6.649991152111153 -1.139701081019606e-16 -1.235980034975269e-41 -3.3249955760555765 5.759061272670002 -7.660532269701586e-41 -1.3469162396764524e-41 -2.9706674016087897e-40 7.995001270582096" Properties=species:S:1:pos:R:3:initial_magmoms:R:1:castep_labels:S:1 n_minim_iter=12 pbc="T T T"
P        4.04731951       1.27541691       2.01184830       0.00000000 NULL
P        2.40587993       1.61627130       4.67684872       0.00000000 NULL
P        3.52178829       2.86737248       7.34184914       0.00000000 NULL
P        0.53793002       1.47731003       3.64544459       0.00000000 NULL
P       -2.31457190       4.55454520       6.31044501       0.00000000 NULL
P        1.77664289       5.48626674       0.98044416       0.00000000 NULL
P       -0.69937107       2.01583688       1.34159546       0.00000000 NULL
P       -1.22954342       5.35681595       4.00659588       0.00000000 NULL
P        1.92891550       4.14546914       6.67159631       0.00000000 NULL
P        4.42399603       1.94350532       4.06454643       0.00000000 NULL
P        2.79612321       0.95601566       6.72954685       0.00000000 NULL
P        2.75486849       2.85953971       1.39954601       0.00000000 NULL
12
Lattice="6.617877144104437 4.453496722217591e-16 -2.0214606062997432e-41 -3.308938572052219 5.731249725918848 -1.76090655204789e-41 -2.2390433146993173e-41 -3.334615287646394e-40 8.240981078335736" Properties=species:S:1:pos:R:3:initial_magmoms:R:1:castep_labels:S:1 n_minim_iter=13 pbc="T T T"
P        4.01383587       1.27249527       2.14223416       0.00000000 NULL
P        2.40403454       1.61891827       4.88922785       0.00000000 NULL
P        3.50894632       2.83983562       7.63622154       0.00000000 NULL
P        0.53260011       1.41580801       3.72075971       0.00000000 NULL
P       -2.34911226       4.56210050       6.46775340       0.00000000 NULL
P        1.81651315       5.48459038       0.97376601       0.00000000 NULL
P       -0.65993226       1.94351651       1.35363635       0.00000000 NULL
P       -1.29583711       5.33100958       4.10063005       0.00000000 NULL
P        1.95577037       4.18797279       6.84762374       0.00000000 NULL
P        4.44253377       1.94143019       4.18718994       0.00000000 NULL
P        2.76900022       0.91318753       6.93418363       0.00000000 NULL
P        2.71528273       2.87663143       1.44019625       0.00000000 NULL
12
Lattice="6.412268555010496 2.4834860525203704e-17 -1.7024383030976828e-41 -3.206134277505248 5.55318746452722 -3.605235891783499e-41 -1.8178898520821855e-41 -4.699996655710738e-40 8.091444933157135" Properties=species:S:1:pos:R:3:initial_magmoms:R:1:castep_labels:S:1 n_minim_iter=14 pbc="T T T"
P        3.88889008       1.23469892       2.10862162       0.00000000 NULL
P        2.33097052       1.56796040       4.80576993       0.00000000 NULL
P        3.39854321       2.75052758       7.50291825       0.00000000 NULL
P        0.51833084       1.36488741       3.64979639       0.00000000 NULL
P       -2.28327188       4.42185609       6.34694470       0.00000000 NULL
P        1.76494201       5.31963087       0.95264807       0.00000000 NULL
P       -0.63791873       1.87346894       1.32688674       0.00000000 NULL
P       -1.26470257       5.16890682       4.02403505       0.00000000 NULL
P        1.90262227       4.06399861       6.72118336       0.00000000 NULL
P        4.30672322       1.88125478       4.11158819       0.00000000 NULL
P        2.68198774       0.88282836       6.80873650       0.00000000 NULL
P        2.62969284       2.78910377       1.41443988       0.00000000 NULL
12
Lattice="6.520718975656934 5.827204636344585e-16 -2.2155746613273226e-41 -3.2603594878284676 5.6471082838581435 -2.9639035258932456e-41 -2.4617607379699213e-41 -5.281240075588304e-40 8.220960622211635" Properties=species:S:1:pos:R:3:initial_magmoms:R:1:castep_labels:S:1 n_minim_iter=15 pbc="T T T"
P        3.95310921       1.25473698       2.14566570       0.00000000 NULL
P        2.37043964       1.59624679       4.88598591       0.00000000 NULL
P        3.45753060       2.79612394       7.62630611       0.00000000 NULL
P        0.52640603       1.38610762       3.70564135       0.00000000 NULL
P       -2.32315743       4.49817348       6.44596156       0.00000000 NULL
P        1.79675239       5.40993490       0.96532115       0.00000000 NULL
P       -0.64555981       1.90344947       1.34561250       0.00000000 NULL
P       -1.28914333       5.25445474       4.08593270       0.00000000 NULL
P        1.93470413       4.13631179       6.82625291       0.00000000 NULL
P        4.38232149       1.91422479       4.17919642       0.00000000 NULL
P        2.72696669       0.89479416       6.91951663       0.00000000 NULL
P        2.67179127       2.83808878       1.43887621       0.00000000 NULL
12
Lattice="6.511828793245212 -1.2580773343583272e-16 -2.210862856964389e-41 -3.255914396622606 5.6394091600453145 2.369474234999202e-41 -2.453042172045603e-41 -6.319395873365786e-40 8.219259148573915" Properties=species:S:1:pos:R:3:initial_magmoms:R:1:castep_labels:S:1 n_minim_iter=16 pbc="T T T"
P        3.94719782       1.25316075       2.14765471       0.00000000 NULL
P        2.36758519       1.59445520       4.88740776       0.00000000 NULL
P        3.45296117       2.79179265       7.62716081       0.00000000 NULL
P        0.52605394       1.38210653       3.70322946       0.00000000 NULL
P       -2.32200135       4.49277983       6.44298251       0.00000000 NULL
P        1.79594840       5.40393140       0.96347641       0.00000000 NULL
P       -0.64325560       1.89812456       1.34399994       0.00000000 NULL
P       -1.29046185       5.24742258       4.08375299       0.00000000 NULL
P        1.93371844       4.13327062       6.82350604       0.00000000 NULL
P        4.37769012       1.91205298       4.17887737       0.00000000 NULL
P        2.72295645       0.89219181       6.91863042       0.00000000 NULL
P        2.66709760       2.83516380       1.43912432       0.00000000 NULL
12
Lattice="6.504402252197704 4.899962788380036e-16 -2.2404736003590226e-41 -3.2522011260988526 5.632977586835925 3.700262445132154e-41 -2.4855845438649275e-41 -7.25165435542092e-40 8.225252465303251" Properties=species:S:1:pos:R:3:initial_magmoms:R:1:castep_labels:S:1 n_minim_iter=17 pbc="T T T"
P        3.94168299       1.25191134       2.15371865       0.00000000 NULL
P        2.36554732       1.59342432       4.89546947       0.00000000 NULL
P        3.44937406       2.78764136       7.63722029       0.00000000 NULL
P        0.52603869       1.37671422       3.70279512       0.00000000 NULL
P       -2.32295033       4.48905761       6.44454595       0.00000000 NULL
P        1.79691262       5.40018278       0.96104430       0.00000000 NULL
P       -0.63976956       1.89104578       1.34244824       0.00000000 NULL
P       -1.29462200       5.24151139       4.08419906       0.00000000 NULL
P        1.93439255       4.13339743       6.82594989       0.00000000 NULL
P        4.37526310       1.91074041       4.18309297       0.00000000 NULL
P        2.71931997       0.88851839       6.92484379       0.00000000 NULL
P        2.66202129       2.83371822       1.44134215       0.00000000 NULL
12
Lattice="6.405853082224898 8.859903484365398e-16 -2.8429383524606243e-41 -3.2029265411124497 5.5476315021176035 1.9258907989654646e-39 -3.1719642149906637e-41 5.651312649492803e-40 8.335043053781838" Properties=species:S:1:pos:R:3:initial_magmoms:R:1:castep_labels:S:1 n_minim_iter=18 pbc="T T T"
P        3.86554359       1.23591707       2.25854820       0.00000000 NULL
P        2.34049097       1.58201402       5.03689589       0.00000000 NULL
P        3.40274603       2.72969985       7.81524357       0.00000000 NULL
P        0.52715377       1.29339099       3.69674390       0.00000000 NULL
P       -2.34639333       4.44440745       6.47509158       0.00000000 NULL
P        1.81924053       5.35746401       0.91839621       0.00000000 NULL
P       -0.58357727       1.78123548       1.31716520       0.00000000 NULL
P       -1.36854208       5.16240651       4.09551288       0.00000000 NULL
P        1.95212033       4.15162046       6.87386057       0.00000000 NULL
P        4.35203759       1.89664629       4.26152525       0.00000000 NULL
P        2.66945226       0.83033325       7.03987293       0.00000000 NULL
P        2.58729074       2.82065141       1.48317756       0.00000000 NULL
