32
Lattice="6.439090474487117 0.0 0.0 0.0 6.439090474487117 0.0 0.0 0.0 14.51264706023246" Properties=species:S:1:pos:R:3:initial_magmoms:R:1:castep_labels:S:1:forces:R:3 n_minim_iter=1 energy=-171.454411187483 stress="-5.454349391632305e-05 0.0 0.0 0.0 -5.454349391632305e-05 0.0 0.0 0.0 -6.742320378382774e-05" free_energy=-171.454411187483 pbc="T T T"
P        2.08466127       6.43863109       0.45026503       0.00000000 NULL       0.00560200       0.00081400       0.00202600
P        4.35442921       0.00045938       0.45026503       0.00000000 NULL      -0.00560200      -0.00081400       0.00202600
P        6.43863109       4.35442921       7.70658856       0.00000000 NULL       0.00081400      -0.00560200       0.00202600
P        0.00045938       2.08466127       7.70658856       0.00000000 NULL      -0.00081400       0.00560200       0.00202600
P        6.43985949       2.08642805       3.04242001       0.00000000 NULL      -0.00287300      -0.00234500      -0.00245600
P       -0.00076902       4.35266242       3.04242001       0.00000000 NULL       0.00287300       0.00234500      -0.00245600
P        2.08642805      -0.00076902      10.29874354       0.00000000 NULL      -0.00234500       0.00287300      -0.00245600
P        4.35266242       6.43985949      10.29874354       0.00000000 NULL       0.00234500      -0.00287300      -0.00245600
P        3.21746800       5.27759628       7.12264849       0.00000000 NULL       0.00005200       0.00077300       0.00034600
P        3.22162248       1.16149420       7.12264849       0.00000000 NULL      -0.00005200      -0.00077300       0.00034600
P        5.27759628       3.22162248      14.37897202       0.00000000 NULL       0.00077300      -0.00005200       0.00034600
P        1.16149420       3.21746800      14.37897202       0.00000000 NULL      -0.00077300       0.00005200       0.00034600
P        1.11551062       4.85155188      12.67306372       0.00000000 NULL      -0.00179300       0.00344100      -0.00127700
P        5.32357985       1.58753860      12.67306372       0.00000000 NULL       0.00179300      -0.00344100      -0.00127700
P        4.85155188       5.32357985       5.41674019       0.00000000 NULL       0.00344100       0.00179300      -0.00127700
P        1.58753860       1.11551062       5.41674019       0.00000000 NULL      -0.00344100      -0.00179300      -0.00127700
P        4.66465607       1.75909446       8.98005928       0.00000000 NULL       0.00141700      -0.00118400       0.00335400
P        1.77443440       4.67999602       8.98005928       0.00000000 NULL      -0.00141700       0.00118400       0.00335400
P        1.75909446       1.77443440       1.72373575       0.00000000 NULL      -0.00118400      -0.00141700       0.00335400
P        4.67999602       4.66465607       1.72373575       0.00000000 NULL       0.00118400       0.00141700       0.00335400
P        4.66429184       4.68097086       8.98073464       0.00000000 NULL       0.00413100      -0.00186500       0.00098500
P        1.77479864       1.75811961       8.98073464       0.00000000 NULL      -0.00413100       0.00186500       0.00098500
P        4.68097086       1.77479864       1.72441111       0.00000000 NULL      -0.00186500      -0.00413100       0.00098500
P        1.75811961       4.66429184       1.72441111       0.00000000 NULL       0.00186500       0.00413100       0.00098500
P        4.85571283       7.54503311       5.41720358       0.00000000 NULL       0.00115600       0.00297500      -0.00299000
P        1.58337764      -1.10594263       5.41720358       0.00000000 NULL      -0.00115600      -0.00297500      -0.00299000
P        7.54503311       1.58337764      12.67352711       0.00000000 NULL       0.00297500      -0.00115600      -0.00299000
P       -1.10594263       4.85571283      12.67352711       0.00000000 NULL      -0.00297500       0.00115600      -0.00299000
P        1.14712420       3.21676089      11.05516520       0.00000000 NULL       0.00147000       0.00116500       0.00001300
P        5.29196627       3.22232959      11.05516520       0.00000000 NULL      -0.00147000      -0.00116500       0.00001300
P        3.21676089       5.29196627       3.79884167       0.00000000 NULL       0.00116500      -0.00147000       0.00001300
P        3.22232959       1.14712420       3.79884167       0.00000000 NULL      -0.00116500       0.00147000       0.00001300
