8
Lattice="4.938177151956452 0.0 0.0 0.0 4.936625226867722 0.0 0.0 0.0 4.936625226867722" Properties=species:S:1:pos:R:3:initial_magmoms:R:1:castep_labels:S:1:forces:R:3 n_minim_iter=7 energy=-44.22440948844 stress="0.0002644902759843566 -0.0 -0.0 -0.0 -0.00031476254019124813 0.0 -0.0 0.0 -0.00031476254019124813" free_energy=-44.22440948844 pbc="T T T"
P        3.79255307       3.70410597       3.70276660       0.00000000 NULL       0.00191400      -0.00154700      -0.00126400
P        3.79255307       1.23251926       1.23385862       0.00000000 NULL       0.00191400       0.00154700       0.00126400
P        1.32346449       3.70276660       1.23251926       0.00000000 NULL       0.00191400      -0.00126400       0.00154700
P        1.32346449       1.23385862       3.70410597       0.00000000 NULL       0.00191400       0.00126400      -0.00154700
P        3.79448513       1.23208496       3.70230705       0.00000000 NULL      -0.00191400       0.00285700       0.00021200
P        3.79448513       3.70454027       1.23431818       0.00000000 NULL      -0.00191400      -0.00285700      -0.00021200
P        1.32539655       3.70230705       3.70454027       0.00000000 NULL      -0.00191400       0.00021200      -0.00285700
P        1.32539655       1.23431818       1.23208496       0.00000000 NULL      -0.00191400      -0.00021200       0.00285700
