52
Lattice="5.265466660720238 0.0 0.0 0.0 10.539152622721447 0.0 0.0 0.0 25.704683737944624" Properties=species:S:1:pos:R:3:initial_magmoms:R:1:castep_labels:S:1:forces:R:3 n_minim_iter=10 energy=-279.350917220825 stress="4.626888796135332e-06 0.0 0.0 0.0 1.864776393593937e-06 0.0 0.0 0.0 2.628914088713257e-06" free_energy=-279.350917220825 pbc="T T T"
P        1.48063083       1.73684755      15.29542385       0.00000000 NULL       0.00238400      -0.00196300       0.00158100
P        3.78483583       8.80230508      15.29542385       0.00000000 NULL      -0.00238400       0.00196300       0.00158100
P        1.15210250       7.00642386       2.44308198       0.00000000 NULL      -0.00238600      -0.00196300       0.00158100
P        4.11336416       3.53272877       2.44308198       0.00000000 NULL       0.00238600       0.00196300       0.00158100
P        4.38366773       3.35406577      22.65292386       0.00000000 NULL       0.00357700      -0.00056500      -0.00109500
P        0.88179893       7.18508685      22.65292386       0.00000000 NULL      -0.00357700       0.00056500      -0.00109500
P        3.51453226       8.62364209       9.80058199       0.00000000 NULL      -0.00357400      -0.00056500      -0.00109400
P        1.75093440       1.91551054       9.80058199       0.00000000 NULL       0.00357400       0.00056500      -0.00109400
P        1.50645896       9.03655466       1.52556239       0.00000000 NULL       0.00049300       0.00034000       0.00681100
P        3.75900770       1.50259796       1.52556239       0.00000000 NULL      -0.00049300      -0.00034000       0.00681100
P        1.12627437       3.76697835      14.37790425       0.00000000 NULL      -0.00049600       0.00033900       0.00681000
P        4.13919229       6.77217428      14.37790425       0.00000000 NULL       0.00049600      -0.00033900       0.00681000
P        5.09097137       2.61157589      10.61692802       0.00000000 NULL       0.00325400      -0.00133600      -0.00126700
P        0.17449529       7.92757673      10.61692802       0.00000000 NULL      -0.00325300       0.00133600      -0.00126700
P        2.80722862       7.88115220      23.46926989       0.00000000 NULL      -0.00324700      -0.00133800      -0.00126500
P        2.45823804       2.65800042      23.46926989       0.00000000 NULL       0.00324700       0.00133800      -0.00126500
P        4.12807483       3.77589602      14.33892154       0.00000000 NULL      -0.00158300       0.00356800       0.00057000
P        1.13739183       6.76325660      14.33892154       0.00000000 NULL       0.00158300      -0.00356800       0.00057000
P        3.77012516       9.04547234       1.48657967       0.00000000 NULL       0.00158600       0.00356900       0.00057000
P        1.49534150       1.49368029       1.48657967       0.00000000 NULL      -0.00158600      -0.00356900       0.00057000
P        1.48789684       8.79552149      15.26277093       0.00000000 NULL       0.00171500      -0.00267700      -0.00187200
P        3.77756982       1.74363113      15.26277093       0.00000000 NULL      -0.00171500       0.00267700      -0.00187200
P        1.14483649       3.52594518       2.41042907       0.00000000 NULL      -0.00171700      -0.00267800      -0.00187200
P        4.12063017       7.01320744       2.41042907       0.00000000 NULL       0.00171700       0.00267800      -0.00187200
P        1.47714929       1.10278510      13.13228369       0.00000000 NULL      -0.00027200      -0.00355000       0.00185900
P        3.78831737       9.43636752      13.13228369       0.00000000 NULL       0.00027200       0.00355000       0.00185900
P        1.15558404       6.37236141       0.27994182       0.00000000 NULL       0.00027100      -0.00354700       0.00185900
P        4.10988262       4.16679121       0.27994182       0.00000000 NULL      -0.00027100       0.00354700       0.00185900
P        1.50136491       9.43945505      13.10916515       0.00000000 NULL      -0.00326900      -0.00240000      -0.00195800
P        3.76410175       1.09969757      13.10916515       0.00000000 NULL       0.00326900       0.00240000      -0.00195800
P        1.13136842       4.16987874       0.25682328       0.00000000 NULL       0.00326700      -0.00240300      -0.00195800
P        4.13409824       6.36927388       0.25682328       0.00000000 NULL      -0.00326700       0.00240300      -0.00195800
P        0.59347811       3.45261070       8.72932388       0.00000000 NULL      -0.00275600      -0.00429500       0.00054300
P        4.67198855       7.08654192       8.72932388       0.00000000 NULL       0.00275600       0.00429500       0.00054300
P        2.03925522       8.72218702      21.58166575       0.00000000 NULL       0.00275500      -0.00429500       0.00054200
P        3.22621144       1.81696561      21.58166575       0.00000000 NULL      -0.00275500       0.00429500       0.00054200
P        4.21026147       1.33284643      23.48774267       0.00000000 NULL      -0.00099400       0.00162200      -0.00213100
P        1.05520519       9.20630619      23.48774267       0.00000000 NULL       0.00099400      -0.00162200      -0.00213100
P        3.68793853       6.60242275      10.63540080       0.00000000 NULL       0.00099600       0.00162300      -0.00213100
P        1.57752814       3.93672988      10.63540080       0.00000000 NULL      -0.00099700      -0.00162300      -0.00213100
P        4.13696702      10.52743614       3.14701159       0.00000000 NULL      -0.00410400      -0.00006200      -0.00296500
P        1.12849964       0.01171648       3.14701159       0.00000000 NULL       0.00410400       0.00006200      -0.00296500
P        3.76123297       5.25785983      15.99935346       0.00000000 NULL       0.00410700      -0.00006400      -0.00296400
P        1.50423369       5.28129279      15.99935346       0.00000000 NULL      -0.00410700       0.00006400      -0.00296400
P        0.88734226       9.88220331      18.33401329       0.00000000 NULL       0.00326100       0.00161700       0.00056900
P        4.37812440       0.65694931      18.33401329       0.00000000 NULL      -0.00326100      -0.00161700       0.00056900
P        1.74539107       4.61262700       5.48167142       0.00000000 NULL      -0.00326800       0.00161200       0.00056700
P        3.52007559       5.92652562       5.48167142       0.00000000 NULL       0.00326800      -0.00161200       0.00056700
P        3.28434972       4.38926447       7.04390941       0.00000000 NULL      -0.00148700       0.00265200      -0.00064400
P        1.98111694       6.14988815       7.04390941       0.00000000 NULL       0.00148700      -0.00265200      -0.00064400
P       -0.65161639       9.65884079      19.89625128       0.00000000 NULL       0.00149200       0.00265900      -0.00064700
P        5.91708305       0.88031184      19.89625128       0.00000000 NULL      -0.00149200      -0.00265900      -0.00064700
