8
Lattice="4.3728634990893225 0.0 0.0 0.0 3.35760187424874 0.0 0.0 0.0 9.976341787727115" Properties=species:S:1:pos:R:3:initial_magmoms:R:1:castep_labels:S:1:forces:R:3 n_minim_iter=19 energy=-43.727394136211 stress="4.6765346495742556e-05 0.0 0.0 0.0 9.332588125500741e-05 0.0 0.0 0.0 8.752288205480578e-05" free_energy=-43.727394136211 pbc="T T T"
P        1.11238609       1.93300962       8.59303810       0.00000000 NULL       0.00088900       0.00110900       0.00188700
P        1.07404566       0.25420868       1.38330369       0.00000000 NULL      -0.00088500       0.00110800      -0.00188700
P        3.26047741       3.10339320       3.60486720       0.00000000 NULL      -0.00088900      -0.00110800       0.00188600
P        3.29881784       1.42459226       6.37147458       0.00000000 NULL       0.00088500      -0.00110900      -0.00188600
P        0.16373899       1.43015340       4.45104667       0.00000000 NULL      -0.00378800       0.00388500       0.00305100
P        2.02269276       3.10895433       5.52529511       0.00000000 NULL       0.00379200       0.00388600      -0.00305000
P        4.20912451       0.24864754      -0.53712422       0.00000000 NULL       0.00378900      -0.00388500       0.00305100
P        2.35017074       1.92744848      10.51346601       0.00000000 NULL      -0.00379300      -0.00388500      -0.00305100
