9
Lattice="4.436099999999997 -1.6368736802528468e-17 -2.527375703488324e-16 -0.3521267031110275 6.465928900402184 1.9528567484596932e-15 -1.372941742475256 -1.1294605037733372 7.134511414566877" Properties=species:S:1:pos:R:3:initial_magmoms:R:1:castep_labels:S:1 n_minim_iter=1 pbc="T T T"
P        2.61593400       2.49372761       2.87104511       0.00000000 NULL
P       -0.52513886       0.30308820       3.11125555       0.00000000 NULL
P       -0.34609145       3.69238744       3.61440627       0.00000000 NULL
P        0.89485989       2.16913494       4.37287974       0.00000000 NULL
P       -0.57038301       3.95755130       6.34851014       0.00000000 NULL
P        0.24312852       2.06579815       2.43131093       0.00000000 NULL
P        0.73014013      -0.54054760       5.67873505       0.00000000 NULL
P        0.15030046       5.17379752       2.36173803       0.00000000 NULL
P        2.83985870       1.43856596       1.17720937       0.00000000 NULL
9
Lattice="4.443932232336482 -0.00040894496526750276 3.7549551707108366e-05 -0.3533444725977928 6.474791727278817 0.002150331377589732 -1.375201252815368 -1.1285004493744115 7.1415297478271125" Properties=species:S:1:pos:R:3:initial_magmoms:R:1:castep_labels:S:1 n_minim_iter=2 pbc="T T T"
P        2.61986094       2.49794278       2.87508017       0.00000000 NULL
P       -0.52625181       0.30436557       3.11475795       0.00000000 NULL
P       -0.34708349       3.69896719       3.61975821       0.00000000 NULL
P        0.89651484       2.17339252       4.37855659       0.00000000 NULL
P       -0.57163568       3.96526719       6.35627545       0.00000000 NULL
P        0.24367363       2.06941600       2.43404790       0.00000000 NULL
P        0.73144825      -0.53959252       5.68454029       0.00000000 NULL
P        0.15032635       5.18172420       2.36562940       0.00000000 NULL
P        2.84476374       1.44045286       1.17859066       0.00000000 NULL
9
Lattice="4.70548692757544 -0.01445530247562835 0.0011874224128146196 -0.39457959838155215 6.765938286597275 0.07534423761800867 -1.4507249722877094 -1.0939526325749311 7.3700457469933465" Properties=species:S:1:pos:R:3:initial_magmoms:R:1:castep_labels:S:1 n_minim_iter=3 pbc="T T T"
P        2.75007392       2.63741873       3.00813399       0.00000000 NULL
P       -0.56371908       0.34732473       3.22926416       0.00000000 NULL
P       -0.38072879       3.91703121       3.79671716       0.00000000 NULL
P        0.95181111       2.31489570       4.56520555       0.00000000 NULL
P       -0.61383782       4.22158040       6.61132628       0.00000000 NULL
P        0.26199050       2.18900715       2.52382173       0.00000000 NULL
P        0.77487568      -0.50634704       5.87378650       0.00000000 NULL
P        0.15093029       5.44307537       2.49471835       0.00000000 NULL
P        3.00847935       1.50207069       1.22389575       0.00000000 NULL
9
Lattice="4.823478082473475 -0.02868722592997998 -0.0023343186993076293 -0.4246894790294865 6.766837277944439 0.1436470841052775 -1.489282824574975 -1.0144506873468395 7.356124260352563" Properties=species:S:1:pos:R:3:initial_magmoms:R:1:castep_labels:S:1 n_minim_iter=4 pbc="T T T"
P        2.79723831       2.66118066       3.03540525       0.00000000 NULL
P       -0.58565535       0.37526962       3.23307311       0.00000000 NULL
P       -0.40647490       3.96238707       3.84423219       0.00000000 NULL
P        0.97157825       2.35709032       4.59225001       0.00000000 NULL
P       -0.64271854       4.29858873       6.64462780       0.00000000 NULL
P        0.26629173       2.21213350       2.53467682       0.00000000 NULL
P        0.78718498      -0.45639316       5.86766861       0.00000000 NULL
P        0.14073581       5.47235903       2.54202794       0.00000000 NULL
P        3.08019024       1.49964914       1.23243011       0.00000000 NULL
9
Lattice="4.980113411337813 -0.04354090444939165 -0.022331390655431882 -0.4587730910219275 6.704927841764527 0.2413229058407535 -1.5661394951301164 -0.8928092236353876 7.245476497676046" Properties=species:S:1:pos:R:3:initial_magmoms:R:1:castep_labels:S:1 n_minim_iter=5 pbc="T T T"
P        2.84904326       2.67376202       3.02694609       0.00000000 NULL
P       -0.62828164       0.40876339       3.19725717       0.00000000 NULL
P       -0.45239577       3.98884327       3.86824593       0.00000000 NULL
P        0.98800591       2.39721761       4.56804560       0.00000000 NULL
P       -0.69652136       4.37120760       6.60635641       0.00000000 NULL
P        0.26731489       2.22464471       2.51494255       0.00000000 NULL
P        0.78051823      -0.38227300       5.78047741       0.00000000 NULL
P        0.12524225       5.46799000       2.57526813       0.00000000 NULL
P        3.17485989       1.48447138       1.22177500       0.00000000 NULL
9
Lattice="5.127904611686935 -0.0284185572356732 -0.06741073052862233 -0.4484625042986004 6.649285461545428 0.32506716356766124 -1.6882304910315795 -0.7995244214092515 7.001036487966217" Properties=species:S:1:pos:R:3:initial_magmoms:R:1:castep_labels:S:1 n_minim_iter=6 pbc="T T T"
P        2.89000028       2.70133608       2.94111664       0.00000000 NULL
P       -0.69308996       0.42410540       3.09948707       0.00000000 NULL
P       -0.50010918       4.00544999       3.82271160       0.00000000 NULL
P        1.00102346       2.43659310       4.44630176       0.00000000 NULL
P       -0.75254620       4.43491395       6.42849090       0.00000000 NULL
P        0.27243795       2.23615153       2.43392580       0.00000000 NULL
P        0.73030858      -0.32265178       5.57528552       0.00000000 NULL
P        0.13539047       5.47685768       2.54225341       0.00000000 NULL
P        3.27124989       1.48402966       1.17073131       0.00000000 NULL
9
Lattice="5.202519778853997 0.04600380936949148 -0.1198192871363162 -0.3459094197756991 6.650328138531926 0.45600873056623387 -1.81455966454928 -0.683880842969497 6.580544203397722" Properties=species:S:1:pos:R:3:initial_magmoms:R:1:castep_labels:S:1 n_minim_iter=7 pbc="T T T"
P        2.90506089       2.81400304       2.80538960       0.00000000 NULL
P       -0.76182596       0.44626705       2.92819083       0.00000000 NULL
P       -0.51107933       4.07584497       3.73453592       0.00000000 NULL
P        1.04117068       2.54485133       4.24272946       0.00000000 NULL
P       -0.74677511       4.58117689       6.12185589       0.00000000 NULL
P        0.30055192       2.28371578       2.29782180       0.00000000 NULL
P        0.64032630      -0.22348609       5.22703527       0.00000000 NULL
P        0.21643423       5.57085011       2.48572237       0.00000000 NULL
P        3.34277932       1.53387514       1.09516253       0.00000000 NULL
9
Lattice="5.273840017399541 0.11509182402341549 -0.0656799028066732 -0.25086998645407005 6.827142555439765 0.6327575079985716 -1.7671515044403385 -0.5373402053854708 6.59005213165303" Properties=species:S:1:pos:R:3:initial_magmoms:R:1:castep_labels:S:1 n_minim_iter=8 pbc="T T T"
P        2.99877195       3.01969812       2.94177826       0.00000000 NULL
P       -0.74226840       0.51244159       2.95441126       0.00000000 NULL
P       -0.43414889       4.28178845       3.89847426       0.00000000 NULL
P        1.18642123       2.75130023       4.37858200       0.00000000 NULL
P       -0.60363718       4.87524063       6.26272618       0.00000000 NULL
P        0.36411115       2.39513260       2.34354828       0.00000000 NULL
P        0.69591365      -0.08016158       5.26230971       0.00000000 NULL
P        0.34486156       5.81375436       2.64215944       0.00000000 NULL
P        3.42695672       1.63205356       1.16855407       0.00000000 NULL
9
Lattice="5.145557648158921 0.10594633291539843 -0.0694184659815127 -0.25401744650134606 6.690828961187462 0.6349921476425193 -1.7311331845414637 -0.5084335815606742 6.385074457659711" Properties=species:S:1:pos:R:3:initial_magmoms:R:1:castep_labels:S:1 n_minim_iter=9 pbc="T T T"
P        2.91744321       2.96300531       2.85567039       0.00000000 NULL
P       -0.72716302       0.50907746       2.86517508       0.00000000 NULL
P       -0.43566459       4.20563193       3.79815859       0.00000000 NULL
P        1.15380953       2.70364873       4.24907343       0.00000000 NULL
P       -0.59784797       4.79623493       6.07926325       0.00000000 NULL
P        0.34528492       2.34684386       2.27557649       0.00000000 NULL
P        0.66715418      -0.07076537       5.09559349       0.00000000 NULL
P        0.32749729       5.70714921       2.57697421       0.00000000 NULL
P        3.34229221       1.59771398       1.13609817       0.00000000 NULL
9
Lattice="5.173732360083431 0.11910478066646106 -0.07023979960406107 -0.2370745193407903 6.777403939965092 0.6435551391656514 -1.7445242260451719 -0.5184348133419392 6.415563069717844" Properties=species:S:1:pos:R:3:initial_magmoms:R:1:castep_labels:S:1 n_minim_iter=10 pbc="T T T"
P        2.93940491       3.01072833       2.87197426       0.00000000 NULL
P       -0.73182561       0.51182310       2.88113522       0.00000000 NULL
P       -0.43146695       4.25998688       3.82541206       0.00000000 NULL
P        1.17036305       2.74140975       4.27428714       0.00000000 NULL
P       -0.58988338       4.85803619       6.11049513       0.00000000 NULL
P        0.35180587       2.37578019       2.28439221       0.00000000 NULL
P        0.66730106      -0.06993928       5.11934225       0.00000000 NULL
P        0.34772558       5.78664440       2.59177395       0.00000000 NULL
P        3.36333656       1.62520665       1.14104921       0.00000000 NULL
9
Lattice="5.161681134521636 0.12200721753079259 -0.06888964527270985 -0.23188741609059396 6.788794809810293 0.652861141249484 -1.739362003753685 -0.5109765800421865 6.39479175437494" Properties=species:S:1:pos:R:3:initial_magmoms:R:1:castep_labels:S:1 n_minim_iter=11 pbc="T T T"
P        2.93464716       3.02286515       2.86887384       0.00000000 NULL
P       -0.72905537       0.51471228       2.87427747       0.00000000 NULL
P       -0.42904151       4.27277064       3.82534402       0.00000000 NULL
P        1.17392138       2.75195334       4.26759397       0.00000000 NULL
P       -0.58269065       4.87521657       6.09775340       0.00000000 NULL
P        0.35123962       2.37988196       2.27850037       0.00000000 NULL
P        0.66476686      -0.06356380       5.10292629       0.00000000 NULL
P        0.35350297       5.80282838       2.59230898       0.00000000 NULL
P        3.35639021       1.63079715       1.14050351       0.00000000 NULL
9
Lattice="5.130538960230896 0.13186042795116576 -0.06519823007672108 -0.21505367718039212 6.840030856502784 0.6883788341146359 -1.726295566369114 -0.48359898349426667 6.345350818106684" Properties=species:S:1:pos:R:3:initial_magmoms:R:1:castep_labels:S:1 n_minim_iter=12 pbc="T T T"
P        2.92406974       3.07132002       2.86803124       0.00000000 NULL
P       -0.72125667       0.52640362       2.86108882       0.00000000 NULL
P       -0.42234017       4.32634149       3.83900308       0.00000000 NULL
P        1.18700982       2.79447614       4.25964838       0.00000000 NULL
P       -0.56096910       4.94488893       6.07596337       0.00000000 NULL
P        0.34922131       2.39836027       2.26610115       0.00000000 NULL
P        0.65660912      -0.03971917       5.06360722       0.00000000 NULL
P        0.37326216       5.86938090       2.60411752       0.00000000 NULL
P        3.33842180       1.65341555       1.14210209       0.00000000 NULL
9
Lattice="5.0629669446279335 0.14759000713486217 -0.06854667220804816 -0.1867630048078434 6.959665991922583 0.8003823139431862 -1.7147726061543807 -0.38629153523015536 6.276320012117577" Properties=species:S:1:pos:R:3:initial_magmoms:R:1:castep_labels:S:1 n_minim_iter=13 pbc="T T T"
P        2.89723592       3.19731665       2.88711117       0.00000000 NULL
P       -0.70775330       0.56558697       2.85712591       0.00000000 NULL
P       -0.42157071       4.47488933       3.91644013       0.00000000 NULL
P        1.19911640       2.90954718       4.27829482       0.00000000 NULL
P       -0.53516906       5.13417526       6.08568372       0.00000000 NULL
P        0.33086896       2.44262973       2.25756853       0.00000000 NULL
P        0.62331274       0.03783705       5.00230674       0.00000000 NULL
P        0.40467948       6.03371175       2.67030909       0.00000000 NULL
P        3.29087574       1.71098444       1.15241954       0.00000000 NULL
