12
Lattice="3.7922299999999995 0.0 0.0 0.0 7.365849999999999 0.0 0.0 0.0 9.25255" Properties=species:S:1:pos:R:3:initial_magmoms:R:1:castep_labels:S:1 n_minim_iter=1 pbc="T T T"
P        3.69477538       1.01538758       6.05827458       0.00000000 NULL
P        3.69477538       6.35046242       3.19427542       0.00000000 NULL
P        3.69477538       1.01538758       3.19427542       0.00000000 NULL
P        3.69477538       6.35046242       6.05827458       0.00000000 NULL
P        0.96737929       2.66310097       5.64576722       0.00000000 NULL
P        0.96737929       4.70274903       3.60678278       0.00000000 NULL
P        0.96737929       2.66310097       3.60678278       0.00000000 NULL
P        0.96737929       4.70274903       5.64576722       0.00000000 NULL
P        2.72618295       4.68322143       6.64026090       0.00000000 NULL
P        2.72618295       2.68262857       2.61228910       0.00000000 NULL
P        2.72618295       4.68322143       2.61228910       0.00000000 NULL
P        2.72618295       2.68262857       6.64026090       0.00000000 NULL
12
Lattice="3.8104361648964353 0.0 0.0 0.0 7.426865077104084 0.0 0.0 0.0 9.27475294247168" Properties=species:S:1:pos:R:3:initial_magmoms:R:1:castep_labels:S:1 n_minim_iter=2 pbc="T T T"
P        3.71251315       1.02345479       6.07280941       0.00000000 NULL
P        3.71251315       6.40341029       3.20194353       0.00000000 NULL
P        3.71251315       1.02345479       3.20194353       0.00000000 NULL
P        3.71251315       6.40341029       6.07280941       0.00000000 NULL
P        0.97198842       2.68503773       5.65939748       0.00000000 NULL
P        0.97198842       4.74182735       3.61535547       0.00000000 NULL
P        0.97198842       2.68503773       3.61535547       0.00000000 NULL
P        0.97198842       4.74182735       5.65939748       0.00000000 NULL
P        2.73930681       4.72217813       6.65645389       0.00000000 NULL
P        2.73930681       2.70468695       2.61829906       0.00000000 NULL
P        2.73930681       4.72217813       2.61829906       0.00000000 NULL
P        2.73930681       2.70468695       6.65645389       0.00000000 NULL
12
Lattice="4.02648910405107 0.0 0.0 0.0 8.153366627641093 0.0 0.0 0.0 9.5351958415383" Properties=species:S:1:pos:R:3:initial_magmoms:R:1:castep_labels:S:1 n_minim_iter=3 pbc="T T T"
P        3.92301977       1.11913316       6.24322258       0.00000000 NULL
P        3.92301977       7.03423347       3.29197326       0.00000000 NULL
P        3.92301977       1.11913316       3.29197326       0.00000000 NULL
P        3.92301977       7.03423347       6.24322258       0.00000000 NULL
P        1.02659451       2.94611185       5.81943347       0.00000000 NULL
P        1.02659451       5.20725478       3.71576237       0.00000000 NULL
P        1.02659451       2.94611185       3.71576237       0.00000000 NULL
P        1.02659451       5.20725478       5.81943347       0.00000000 NULL
P        2.89512640       5.18617295       6.84643321       0.00000000 NULL
P        2.89512640       2.96719367       2.68876263       0.00000000 NULL
P        2.89512640       5.18617295       2.68876263       0.00000000 NULL
P        2.89512640       2.96719367       6.84643321       0.00000000 NULL
12
Lattice="4.1382896013340105 0.0 0.0 0.0 8.443709648804784 0.0 0.0 0.0 9.674596881113175" Properties=species:S:1:pos:R:3:initial_magmoms:R:1:castep_labels:S:1 n_minim_iter=4 pbc="T T T"
P        4.03208478       1.15704050       6.33328683       0.00000000 NULL
P        4.03208478       7.28666915       3.34131005       0.00000000 NULL
P        4.03208478       1.15704050       3.34131005       0.00000000 NULL
P        4.03208478       7.28666915       6.33328683       0.00000000 NULL
P        1.05408330       3.04918566       5.90662071       0.00000000 NULL
P        1.05408330       5.39452399       3.76797617       0.00000000 NULL
P        1.05408330       3.04918566       3.76797617       0.00000000 NULL
P        1.05408330       5.39452399       5.90662071       0.00000000 NULL
P        2.97639161       5.37255326       6.94819753       0.00000000 NULL
P        2.97639161       3.07115639       2.72639935       0.00000000 NULL
P        2.97639161       5.37255326       2.72639935       0.00000000 NULL
P        2.97639161       3.07115639       6.94819753       0.00000000 NULL
12
Lattice="4.200980971358674 0.0 0.0 0.0 8.67191960319983 0.0 0.0 0.0 9.775610081262588" Properties=species:S:1:pos:R:3:initial_magmoms:R:1:castep_labels:S:1 n_minim_iter=5 pbc="T T T"
P        4.09336782       1.18827147       6.39710039       0.00000000 NULL
P        4.09336782       7.48364813       3.37850969       0.00000000 NULL
P        4.09336782       1.18827147       3.37850969       0.00000000 NULL
P        4.09336782       7.48364813       6.39710039       0.00000000 NULL
P        1.06883203       3.12859451       5.97162096       0.00000000 NULL
P        1.06883203       5.54332509       3.80398912       0.00000000 NULL
P        1.06883203       3.12859451       3.80398912       0.00000000 NULL
P        1.06883203       5.54332509       5.97162096       0.00000000 NULL
P        3.02250039       5.52033760       7.02205596       0.00000000 NULL
P        3.02250039       3.15158201       2.75355412       0.00000000 NULL
P        3.02250039       5.52033760       2.75355412       0.00000000 NULL
P        3.02250039       3.15158201       7.02205596       0.00000000 NULL
12
Lattice="4.192206146261632 0.0 0.0 0.0 8.74544517198463 0.0 0.0 0.0 9.791637661795768" Properties=species:S:1:pos:R:3:initial_magmoms:R:1:castep_labels:S:1 n_minim_iter=6 pbc="T T T"
P        4.08501323       1.20061641       6.40476180       0.00000000 NULL
P        4.08501323       7.54482876       3.38687586       0.00000000 NULL
P        4.08501323       1.20061641       3.38687586       0.00000000 NULL
P        4.08501323       7.54482876       6.40476180       0.00000000 NULL
P        1.06532441       3.15177560       5.98462477       0.00000000 NULL
P        1.06532441       5.59366957       3.80701289       0.00000000 NULL
P        1.06532441       3.15177560       3.80701289       0.00000000 NULL
P        1.06532441       5.59366957       5.98462477       0.00000000 NULL
P        3.01726675       5.56992668       7.03415101       0.00000000 NULL
P        3.01726675       3.17551850       2.75748665       0.00000000 NULL
P        3.01726675       5.56992668       2.75748665       0.00000000 NULL
P        3.01726675       3.17551850       7.03415101       0.00000000 NULL
12
Lattice="4.17128407181585 0.0 0.0 0.0 8.795318106475406 0.0 0.0 0.0 9.789093608038225" Properties=species:S:1:pos:R:3:initial_magmoms:R:1:castep_labels:S:1 n_minim_iter=7 pbc="T T T"
P        4.06485823       1.21148493       6.39902378       0.00000000 NULL
P        4.06485823       7.58383318       3.39006983       0.00000000 NULL
P        4.06485823       1.21148493       3.39006983       0.00000000 NULL
P        4.06485823       7.58383318       6.39902378       0.00000000 NULL
P        1.05793645       3.16511222       5.98709980       0.00000000 NULL
P        1.05793645       5.63020589       3.80199381       0.00000000 NULL
P        1.05793645       3.16511222       3.80199381       0.00000000 NULL
P        1.05793645       5.63020589       5.98709980       0.00000000 NULL
P        3.00404760       5.60560312       7.03311223       0.00000000 NULL
P        3.00404760       3.18971499       2.75598138       0.00000000 NULL
P        3.00404760       5.60560312       2.75598138       0.00000000 NULL
P        3.00404760       3.18971499       7.03311223       0.00000000 NULL
12
Lattice="4.146218270164932 0.0 0.0 0.0 8.859422791209088 0.0 0.0 0.0 9.767149744262305" Properties=species:S:1:pos:R:3:initial_magmoms:R:1:castep_labels:S:1 n_minim_iter=8 pbc="T T T"
P        4.04076557       1.22902502       6.37663381       0.00000000 NULL
P        4.04076557       7.63039777       3.39051593       0.00000000 NULL
P        4.04076557       1.22902502       3.39051593       0.00000000 NULL
P        4.04076557       7.63039777       6.37663381       0.00000000 NULL
P        1.04699626       3.17942841       5.98051096       0.00000000 NULL
P        1.04699626       5.67999438       3.78663879       0.00000000 NULL
P        1.04699626       3.17942841       3.78663879       0.00000000 NULL
P        1.04699626       5.67999438       5.98051096       0.00000000 NULL
P        2.99024517       5.65407060       7.01922289       0.00000000 NULL
P        2.99024517       3.20535219       2.74792685       0.00000000 NULL
P        2.99024517       5.65407060       2.74792685       0.00000000 NULL
P        2.99024517       3.20535219       7.01922289       0.00000000 NULL
12
Lattice="4.14344331525221 0.0 0.0 0.0 8.899405645129738 0.0 0.0 0.0 9.726276201682237" Properties=species:S:1:pos:R:3:initial_magmoms:R:1:castep_labels:S:1 n_minim_iter=9 pbc="T T T"
P        4.03813018       1.24295491       6.34278379       0.00000000 NULL
P        4.03813018       7.65645074       3.38349241       0.00000000 NULL
P        4.03813018       1.24295491       3.38349241       0.00000000 NULL
P        4.03813018       7.65645074       6.34278379       0.00000000 NULL
P        1.04197471       3.18680185       5.96032752       0.00000000 NULL
P        1.04197471       5.71260379       3.76594868       0.00000000 NULL
P        1.04197471       3.18680185       3.76594868       0.00000000 NULL
P        1.04197471       5.71260379       5.96032752       0.00000000 NULL
P        2.99249570       5.68609834       6.99182543       0.00000000 NULL
P        2.99249570       3.21330731       2.73445078       0.00000000 NULL
P        2.99249570       5.68609834       2.73445078       0.00000000 NULL
P        2.99249570       3.21330731       6.99182543       0.00000000 NULL
12
Lattice="4.139178179447638 0.0 0.0 0.0 8.945794140124583 0.0 0.0 0.0 9.650486314962848" Properties=species:S:1:pos:R:3:initial_magmoms:R:1:castep_labels:S:1 n_minim_iter=10 pbc="T T T"
P        4.03378584       1.26030488       6.28428259       0.00000000 NULL
P        4.03378584       7.68548926       3.36620373       0.00000000 NULL
P        4.03378584       1.26030488       3.36620373       0.00000000 NULL
P        4.03378584       7.68548926       6.28428259       0.00000000 NULL
P        1.03589996       3.19559562       5.91959698       0.00000000 NULL
P        1.03589996       5.75019852       3.73088934       0.00000000 NULL
P        1.03589996       3.19559562       3.73088934       0.00000000 NULL
P        1.03589996       5.75019852       5.91959698       0.00000000 NULL
P        2.99460511       5.72357365       6.93969969       0.00000000 NULL
P        2.99460511       3.22222049       2.71078663       0.00000000 NULL
P        2.99460511       5.72357365       2.71078663       0.00000000 NULL
P        2.99460511       3.22222049       6.93969969       0.00000000 NULL
12
Lattice="4.147861751857384 0.0 0.0 0.0 9.008501062324523 0.0 0.0 0.0 9.57065846915995" Properties=species:S:1:pos:R:3:initial_magmoms:R:1:castep_labels:S:1 n_minim_iter=11 pbc="T T T"
P        4.04170033       1.28034369       6.22276978       0.00000000 NULL
P        4.04170033       7.72815737       3.34788869       0.00000000 NULL
P        4.04170033       1.28034369       3.34788869       0.00000000 NULL
P        4.04170033       7.72815737       6.22276978       0.00000000 NULL
P        1.03343901       3.21115522       5.87656925       0.00000000 NULL
P        1.03343901       5.79734584       3.69408922       0.00000000 NULL
P        1.03343901       3.21115522       3.69408922       0.00000000 NULL
P        1.03343901       5.79734584       5.87656925       0.00000000 NULL
P        3.00606962       5.77130391       6.88473798       0.00000000 NULL
P        3.00606962       3.23719716       2.68592049       0.00000000 NULL
P        3.00606962       5.77130391       2.68592049       0.00000000 NULL
P        3.00606962       3.23719716       6.88473798       0.00000000 NULL
12
Lattice="4.147430724008253 0.0 0.0 0.0 9.012005749946287 0.0 0.0 0.0 9.55318494014915" Properties=species:S:1:pos:R:3:initial_magmoms:R:1:castep_labels:S:1 n_minim_iter=12 pbc="T T T"
P        4.04112770       1.28285486       6.20969399       0.00000000 NULL
P        4.04112770       7.72915089       3.34349095       0.00000000 NULL
P        4.04112770       1.28285486       3.34349095       0.00000000 NULL
P        4.04112770       7.72915089       6.20969399       0.00000000 NULL
P        1.03263887       3.21140450       5.86693875       0.00000000 NULL
P        1.03263887       5.80060125       3.68624619       0.00000000 NULL
P        1.03263887       3.21140450       3.68624619       0.00000000 NULL
P        1.03263887       5.80060125       5.86693875       0.00000000 NULL
P        3.00660263       5.77480340       6.87253880       0.00000000 NULL
P        3.00660263       3.23720235       2.68064614       0.00000000 NULL
P        3.00660263       5.77480340       2.68064614       0.00000000 NULL
P        3.00660263       3.23720235       6.87253880       0.00000000 NULL
12
Lattice="4.148378177861331 0.0 0.0 0.0 9.021957861007706 0.0 0.0 0.0 9.526310510172884" Properties=species:S:1:pos:R:3:initial_magmoms:R:1:castep_labels:S:1 n_minim_iter=13 pbc="T T T"
P        4.04178272       1.28750662       6.18941857       0.00000000 NULL
P        4.04178272       7.73445124       3.33689194       0.00000000 NULL
P        4.04178272       1.28750662       3.33689194       0.00000000 NULL
P        4.04178272       7.73445124       6.18941857       0.00000000 NULL
P        1.03177563       3.21338085       5.85224966       0.00000000 NULL
P        1.03177563       5.80857701       3.67406085       0.00000000 NULL
P        1.03177563       3.21338085       3.67406085       0.00000000 NULL
P        1.03177563       5.80857701       5.85224966       0.00000000 NULL
P        3.00865675       5.78320450       6.85382286       0.00000000 NULL
P        3.00865675       3.23875336       2.67248765       0.00000000 NULL
P        3.00865675       5.78320450       2.67248765       0.00000000 NULL
P        3.00865675       3.23875336       6.85382286       0.00000000 NULL
12
Lattice="4.150693864058551 0.0 0.0 0.0 9.034989836366078 0.0 0.0 0.0 9.50054814755981" Properties=species:S:1:pos:R:3:initial_magmoms:R:1:castep_labels:S:1 n_minim_iter=14 pbc="T T T"
P        4.04374039       1.29257078       6.16984119       0.00000000 NULL
P        4.04374039       7.74241906       3.33070696       0.00000000 NULL
P        4.04374039       1.29257078       3.33070696       0.00000000 NULL
P        4.04374039       7.74241906       6.16984119       0.00000000 NULL
P        1.03129897       3.21653803       5.83828567       0.00000000 NULL
P        1.03129897       5.81845181       3.66226248       0.00000000 NULL
P        1.03129897       3.21653803       3.66226248       0.00000000 NULL
P        1.03129897       5.81845181       5.83828567       0.00000000 NULL
P        3.01168736       5.79355810       6.83591210       0.00000000 NULL
P        3.01168736       3.24143174       2.66463605       0.00000000 NULL
P        3.01168736       5.79355810       2.66463605       0.00000000 NULL
P        3.01168736       3.24143174       6.83591210       0.00000000 NULL
12
Lattice="4.156864124676201 0.0 0.0 0.0 9.06531401344243 0.0 0.0 0.0 9.441630611626902" Properties=species:S:1:pos:R:3:initial_magmoms:R:1:castep_labels:S:1 n_minim_iter=15 pbc="T T T"
P        4.04899956       1.30427386       6.12500676       0.00000000 NULL
P        4.04899956       7.76104016       3.31662385       0.00000000 NULL
P        4.04899956       1.30427386       3.31662385       0.00000000 NULL
P        4.04899956       7.76104016       6.12500676       0.00000000 NULL
P        1.03052046       3.22409752       5.80644697       0.00000000 NULL
P        1.03052046       5.84121650       3.63518364       0.00000000 NULL
P        1.03052046       3.22409752       3.63518364       0.00000000 NULL
P        1.03052046       5.84121650       5.80644697       0.00000000 NULL
P        3.01922812       5.81755984       6.79493297       0.00000000 NULL
P        3.01922812       3.24775417       2.64669764       0.00000000 NULL
P        3.01922812       5.81755984       2.64669764       0.00000000 NULL
P        3.01922812       3.24775417       6.79493297       0.00000000 NULL
12
Lattice="4.178738458102396 0.0 0.0 0.0 9.149603324287131 0.0 0.0 0.0 9.279195342601321" Properties=species:S:1:pos:R:3:initial_magmoms:R:1:castep_labels:S:1 n_minim_iter=16 pbc="T T T"
P        4.06773923       1.33723211       6.00082047       0.00000000 NULL
P        4.06773923       7.81237122       3.27837488       0.00000000 NULL
P        4.06773923       1.33723211       3.27837488       0.00000000 NULL
P        4.06773923       7.81237122       6.00082047       0.00000000 NULL
P        1.03011008       3.24603751       5.71945700       0.00000000 NULL
P        1.03011008       5.90356581       3.55973834       0.00000000 NULL
P        1.03011008       3.24603751       3.55973834       0.00000000 NULL
P        1.03011008       5.90356581       5.71945700       0.00000000 NULL
P        3.04351624       5.88433785       6.68187154       0.00000000 NULL
P        3.04351624       3.26526547       2.59732380       0.00000000 NULL
P        3.04351624       5.88433785       2.59732380       0.00000000 NULL
P        3.04351624       3.26526547       6.68187154       0.00000000 NULL
12
Lattice="4.260845912599335 0.0 0.0 0.0 9.30705082718266 0.0 0.0 0.0 9.036346859816737" Properties=species:S:1:pos:R:3:initial_magmoms:R:1:castep_labels:S:1 n_minim_iter=17 pbc="T T T"
P        4.13975786       1.40083226       5.80456576       0.00000000 NULL
P        4.13975786       7.90621857       3.23178110       0.00000000 NULL
P        4.13975786       1.40083226       3.23178110       0.00000000 NULL
P        4.13975786       7.90621857       5.80456576       0.00000000 NULL
P        1.04298413       3.29220677       5.59988018       0.00000000 NULL
P        1.04298413       6.01484406       3.43646668       0.00000000 NULL
P        1.04298413       3.29220677       3.43646668       0.00000000 NULL
P        1.04298413       6.01484406       5.59988018       0.00000000 NULL
P        3.11859213       6.01023518       6.51403002       0.00000000 NULL
P        3.11859213       3.29681565       2.52231684       0.00000000 NULL
P        3.11859213       6.01023518       2.52231684       0.00000000 NULL
P        3.11859213       3.29681565       6.51403002       0.00000000 NULL
12
Lattice="4.132341308856515 0.0 0.0 0.0 9.223537395536969 0.0 0.0 0.0 8.764947154367128" Properties=species:S:1:pos:R:3:initial_magmoms:R:1:castep_labels:S:1 n_minim_iter=18 pbc="T T T"
P        4.00461153       1.41839710       5.59845236       0.00000000 NULL
P        4.00461153       7.80514029       3.16649480       0.00000000 NULL
P        4.00461153       1.41839710       3.16649480       0.00000000 NULL
P        4.00461153       7.80514029       5.59845236       0.00000000 NULL
P        1.01433502       3.26504188       5.45901710       0.00000000 NULL
P        1.01433502       5.95849552       3.30593006       0.00000000 NULL
P        1.01433502       3.26504188       3.30593006       0.00000000 NULL
P        1.01433502       5.95849552       5.45901710       0.00000000 NULL
P        3.03202422       5.97519670       6.32052451       0.00000000 NULL
P        3.03202422       3.24834070       2.44442265       0.00000000 NULL
P        3.03202422       5.97519670       2.44442265       0.00000000 NULL
P        3.03202422       3.24834070       6.32052451       0.00000000 NULL
12
Lattice="4.271364137629259 0.0 0.0 0.0 9.496496545744902 0.0 0.0 0.0 8.89106462611018" Properties=species:S:1:pos:R:3:initial_magmoms:R:1:castep_labels:S:1 n_minim_iter=19 pbc="T T T"
P        4.13818432       1.45751686       5.67700137       0.00000000 NULL
P        4.13818432       8.03897969       3.21406325       0.00000000 NULL
P        4.13818432       1.45751686       3.21406325       0.00000000 NULL
P        4.13818432       8.03897969       5.67700137       0.00000000 NULL
P        1.04925480       3.36448900       5.53956101       0.00000000 NULL
P        1.04925480       6.13200754       3.35150361       0.00000000 NULL
P        1.04925480       3.36448900       3.35150361       0.00000000 NULL
P        1.04925480       6.13200754       5.53956101       0.00000000 NULL
P        3.13438748       6.15202864       6.41377096       0.00000000 NULL
P        3.13438748       3.34446791       2.47729367       0.00000000 NULL
P        3.13438748       6.15202864       2.47729367       0.00000000 NULL
P        3.13438748       3.34446791       6.41377096       0.00000000 NULL
12
Lattice="4.267107654035488 0.0 0.0 0.0 9.460055490175929 0.0 0.0 0.0 8.867287863889011" Properties=species:S:1:pos:R:3:initial_magmoms:R:1:castep_labels:S:1 n_minim_iter=20 pbc="T T T"
P        4.13334214       1.45479530       5.65978372       0.00000000 NULL
P        4.13334214       8.00526019       3.20750414       0.00000000 NULL
P        4.13334214       1.45479530       3.20750414       0.00000000 NULL
P        4.13334214       8.00526019       5.65978372       0.00000000 NULL
P        1.04838129       3.35213203       5.52616457       0.00000000 NULL
P        1.04838129       6.10792346       3.34112329       0.00000000 NULL
P        1.04838129       3.35213203       3.34112329       0.00000000 NULL
P        1.04838129       6.10792346       5.52616457       0.00000000 NULL
P        3.13181033       6.12983013       6.39698352       0.00000000 NULL
P        3.13181033       3.33022536       2.47030435       0.00000000 NULL
P        3.13181033       6.12983013       2.47030435       0.00000000 NULL
P        3.13181033       3.33022536       6.39698352       0.00000000 NULL
