16
Lattice="2.5516435822836607 0.0 0.0 0.0 10.196480611545773 0.0 0.0 0.0 11.695711658414588" Properties=species:S:1:pos:R:3:initial_magmoms:R:1:castep_labels:S:1:forces:R:3 n_minim_iter=1 energy=-87.536115280609 stress="-0.0033820952623167446 -0.0 -0.0 -0.0 -0.0013381024805765205 -0.0 -0.0 -0.0 -0.0038726035786654143" free_energy=-87.536115280609 pbc="T T T"
P       -0.00356812       1.12492438      -0.21097000       0.00000000 NULL       0.01806300       0.01657000      -0.00769600
P        2.55521170       6.22316468      11.90668166       0.00000000 NULL      -0.01806300       0.01657300       0.00769600
P        2.55521170       3.97331593      -0.21097000       0.00000000 NULL      -0.01806300      -0.01657300      -0.00769600
P       -0.00356812       9.07155623      11.90668166       0.00000000 NULL       0.01806300      -0.01657000       0.00769600
P        1.27268870      11.55892825       7.15260870       0.00000000 NULL       0.01317900       0.05515100       0.06861100
P        1.27895488       6.46068794       4.54310295       0.00000000 NULL      -0.01317900       0.05515100      -0.06861100
P        1.27895488       3.73579267       7.15260870       0.00000000 NULL      -0.01317900      -0.05515100       0.06861100
P        1.27268870      -1.36244763       4.54310295       0.00000000 NULL       0.01317900      -0.05515100      -0.06861100
P        2.54765949       6.53071056       9.68731673       0.00000000 NULL       0.03099100       0.05680800       0.01992200
P        0.00398409       1.43247025       2.00839493       0.00000000 NULL      -0.03099100       0.05680700      -0.01992300
P        0.00398409       8.76401036       9.68731673       0.00000000 NULL      -0.03099100      -0.05680700       0.01992300
P        2.54765949       3.66577005       2.00839493       0.00000000 NULL       0.03099100      -0.05680800      -0.01992200
P        1.27740229       6.47338365       6.79514579       0.00000000 NULL       0.00105000       0.04653400      -0.05723700
P        1.27424129       1.37514334       4.90056587       0.00000000 NULL      -0.00105000       0.04653300       0.05723700
P        1.27424129       8.82133727       6.79514579       0.00000000 NULL      -0.00105000      -0.04653300      -0.05723700
P        1.27740229       3.72309696       4.90056587       0.00000000 NULL       0.00105000      -0.04653400       0.05723700
16
Lattice="2.5566678222919976 0.0 0.0 0.0 10.20441924948427 0.0 0.0 0.0 11.72208445570725" Properties=species:S:1:pos:R:3:initial_magmoms:R:1:castep_labels:S:1:forces:R:3 n_minim_iter=2 energy=-87.538685649782 stress="0.00044964196227545027 0.0 -0.0 0.0 0.0002676401324430631 0.0 -0.0 0.0 -0.0002770574028332405" free_energy=-87.538685649782 pbc="T T T"
P       -0.00354055       1.12583190      -0.21146046       0.00000000 NULL       0.01786600       0.00391000       0.04463800
P        2.56020837       6.22804153      11.93354492       0.00000000 NULL      -0.01786600       0.00390900      -0.04463800
P        2.56020837       3.97637772      -0.21146046       0.00000000 NULL      -0.01786600      -0.00390900       0.04463800
P       -0.00354055       9.07858735      11.93354492       0.00000000 NULL       0.01786600      -0.00391000      -0.04463800
P        1.27521989      11.56803314       7.16886864       0.00000000 NULL       0.01308300       0.06735500       0.01881400
P        1.28144793       6.46582351       4.55321582       0.00000000 NULL      -0.01308300       0.06735500      -0.01881400
P        1.28144793       3.73859574       7.16886864       0.00000000 NULL      -0.01308300      -0.06735500       0.01881400
P        1.27521989      -1.36361389       4.55321582       0.00000000 NULL       0.01308300      -0.06735500      -0.01881400
P        2.55273524       6.53590381       9.70919894       0.00000000 NULL       0.03050500       0.07222400       0.05857700
P        0.00393259       1.43369419       2.01288552       0.00000000 NULL      -0.03050500       0.07222400      -0.05857700
P        0.00393259       8.77072506       9.70919894       0.00000000 NULL      -0.03050500      -0.07222400       0.05857700
P        2.55273524       3.66851544       2.01288552       0.00000000 NULL       0.03050500      -0.07222400      -0.05857700
P        1.27991954       6.47851262       6.81035859       0.00000000 NULL       0.00105900       0.06086700      -0.09737500
P        1.27674828       1.37630300       4.91172586       0.00000000 NULL      -0.00105900       0.06086800       0.09737400
P        1.27674828       8.82811625       6.81035859       0.00000000 NULL      -0.00105900      -0.06086800      -0.09737400
P        1.27991954       3.72590663       4.91172586       0.00000000 NULL       0.00105900      -0.06086700       0.09737500
16
Lattice="2.5539645508832884 0.0 0.0 0.0 10.196459384908758 0.0 0.0 0.0 11.74533173672244" Properties=species:S:1:pos:R:3:initial_magmoms:R:1:castep_labels:S:1:forces:R:3 n_minim_iter=3 energy=-87.539694337377 stress="-0.0012025898423452621 -0.0 0.0 -0.0 -0.0011326570018271827 0.0 0.0 0.0 0.0015457479040926962" free_energy=-87.539694337377 pbc="T T T"
P       -0.00328735       1.12501744      -0.21129323       0.00000000 NULL       0.01632700       0.01540900       0.06052000
P        2.55725190       6.22324713      11.95662497       0.00000000 NULL      -0.01632700       0.01540600      -0.06052100
P        2.55725190       3.97321225      -0.21129323       0.00000000 NULL      -0.01632700      -0.01540600       0.06052100
P       -0.00328735       9.07144194      11.95662497       0.00000000 NULL       0.01632700      -0.01540900      -0.06052000
P        1.27405419      11.55993864       7.18338613       0.00000000 NULL       0.01208400       0.06107000      -0.00318100
P        1.27991036       6.46170895       4.56194561       0.00000000 NULL      -0.01208400       0.06106900       0.00318200
P        1.27991036       3.73475044       7.18338613       0.00000000 NULL      -0.01208400      -0.06106900      -0.00318200
P        1.27405419      -1.36347925       4.56194561       0.00000000 NULL       0.01208400      -0.06107000       0.00318100
P        2.55046216       6.53180003       9.72924614       0.00000000 NULL       0.02749900       0.03735600       0.07092500
P        0.00350239       1.43357034       2.01608559       0.00000000 NULL      -0.02749900       0.03735700      -0.07092400
P        0.00350239       8.76288904       9.72924614       0.00000000 NULL      -0.02749900      -0.03735700       0.07092400
P        2.55046216       3.66465935       2.01608559       0.00000000 NULL       0.02749900      -0.03735600      -0.07092500
P        1.27858100       6.47429625       6.82253078       0.00000000 NULL       0.00034200       0.05267500      -0.11161500
P        1.27538355       1.37606656       4.92280096       0.00000000 NULL      -0.00034200       0.05267600       0.11161400
P        1.27538355       8.82039283       6.82253078       0.00000000 NULL      -0.00034200      -0.05267600      -0.11161400
P        1.27858100       3.72216313       4.92280096       0.00000000 NULL       0.00034200      -0.05267500       0.11161500
16
Lattice="2.557556634117786 0.0 0.0 0.0 10.233572216555245 0.0 0.0 0.0 11.783663051178436" Properties=species:S:1:pos:R:3:initial_magmoms:R:1:castep_labels:S:1:forces:R:3 n_minim_iter=4 energy=-87.549462058467 stress="-0.00013867761550636292 0.0 0.0 0.0 -0.0003026135575218342 0.0 0.0 0.0 -0.00045896227437282376" free_energy=-87.549462058467 pbc="T T T"
P       -0.00034091       1.13023257      -0.20426903       0.00000000 NULL      -0.00235800      -0.05042900      -0.03257100
P        2.55789754       6.24701868      11.98793209       0.00000000 NULL       0.00235800      -0.05043000       0.03257100
P        2.55789754       3.98655354      -0.20426903       0.00000000 NULL       0.00235800       0.05043000      -0.03257100
P       -0.00034091       9.10333965      11.98793209       0.00000000 NULL      -0.00235800       0.05042900       0.03257100
P        1.27801101      11.61303903       7.20961621       0.00000000 NULL      -0.00024300       0.04748500       0.04820900
P        1.27954562       6.49625292       4.57404684       0.00000000 NULL       0.00024300       0.04748400      -0.04820800
P        1.27954562       3.73731930       7.20961621       0.00000000 NULL       0.00024300      -0.04748400       0.04820800
P        1.27801101      -1.37946681       4.57404684       0.00000000 NULL      -0.00024300      -0.04748500      -0.04820900
P        2.55907664       6.56645528       9.77104219       0.00000000 NULL      -0.00877800      -0.10593300      -0.01326300
P       -0.00152001       1.44966917       2.01262087       0.00000000 NULL       0.00877800      -0.10593300       0.01326300
P       -0.00152001       8.78390305       9.77104219       0.00000000 NULL       0.00877800       0.10593300      -0.01326400
P        2.55907664       3.66711694       2.01262087       0.00000000 NULL      -0.00877800       0.10593300       0.01326300
P        1.28053350       6.50771923       6.82814436       0.00000000 NULL      -0.00772100       0.01282300      -0.03885200
P        1.27702314       1.39093312       4.95551869       0.00000000 NULL       0.00772100       0.01282400       0.03885200
P        1.27702314       8.84263910       6.82814436       0.00000000 NULL       0.00772100      -0.01282400      -0.03885200
P        1.28053350       3.72585299       4.95551869       0.00000000 NULL      -0.00772100      -0.01282300       0.03885200
16
Lattice="2.555495382757537 0.0 0.0 0.0 10.248855861148693 0.0 0.0 0.0 11.790709758926122" Properties=species:S:1:pos:R:3:initial_magmoms:R:1:castep_labels:S:1:forces:R:3 n_minim_iter=5 energy=-87.550317535763 stress="-0.0016188954943396263 0.0 0.0 0.0 0.002005120897115789 -0.0 0.0 -0.0 -2.3865860807079083e-05" free_energy=-87.550317535763 pbc="T T T"
P       -0.00012836       1.13105051      -0.20423029       0.00000000 NULL      -0.00351600      -0.05111300      -0.02360600
P        2.55562374       6.25547845      11.99494005       0.00000000 NULL       0.00351600      -0.05111200       0.02360600
P        2.55562374       3.99337742      -0.20423029       0.00000000 NULL       0.00351600       0.05111200      -0.02360600
P       -0.00012836       9.11780535      11.99494005       0.00000000 NULL      -0.00351600       0.05111300       0.02360600
P        1.27716488      11.63226441       7.21498438       0.00000000 NULL      -0.00091800       0.04963200       0.04671600
P        1.27833050       6.50783648       4.57572538       0.00000000 NULL       0.00091800       0.04963200      -0.04671600
P        1.27833050       3.74101938       7.21498438       0.00000000 NULL       0.00091800      -0.04963200       0.04671600
P        1.27716488      -1.38340855       4.57572538       0.00000000 NULL      -0.00091800      -0.04963200      -0.04671600
P        2.55728567       6.57521598       9.77759082       0.00000000 NULL      -0.01084600      -0.05537300      -0.00830000
P       -0.00179028       1.45078804       2.01311894       0.00000000 NULL       0.01084600      -0.05537300       0.00830000
P       -0.00179028       8.79806782       9.77759082       0.00000000 NULL       0.01084600       0.05537300      -0.00830000
P        2.55728567       3.67363989       2.01311894       0.00000000 NULL      -0.01084600       0.05537300       0.00830000
P        1.27936919       6.51856476       6.82994725       0.00000000 NULL      -0.00762600       0.01536100      -0.03567900
P        1.27612620       1.39413683       4.96076251       0.00000000 NULL       0.00762600       0.01536100       0.03567900
P        1.27612620       8.85471903       6.82994725       0.00000000 NULL       0.00762600      -0.01536100      -0.03567900
P        1.27936919       3.73029110       4.96076251       0.00000000 NULL      -0.00762600      -0.01536100       0.03567900
16
Lattice="2.558008337622882 0.0 0.0 0.0 10.239764999048123 0.0 0.0 0.0 11.802335292285658" Properties=species:S:1:pos:R:3:initial_magmoms:R:1:castep_labels:S:1:forces:R:3 n_minim_iter=6 energy=-87.553949350295 stress="-0.0005586729684555485 -0.0 0.0 -0.0 -0.00020805885780244846 -0.0 0.0 -0.0 -0.0007099943827590082" free_energy=-87.553949350295 pbc="T T T"
P        0.00070442       1.12590243      -0.20396526       0.00000000 NULL      -0.00785600      -0.00306700      -0.02488700
P        2.55730392       6.24578493      12.00630056       0.00000000 NULL       0.00785600      -0.00306700       0.02488700
P        2.55730392       3.99398007      -0.20396526       0.00000000 NULL       0.00785600       0.00306700      -0.02488700
P        0.00070442       9.11386256      12.00630056       0.00000000 NULL      -0.00785600       0.00306700       0.02488700
P        1.27916593      11.63022642       7.22689350       0.00000000 NULL      -0.00346700      -0.00245400       0.07968900
P        1.27884241       6.51034392       4.57544179       0.00000000 NULL       0.00346700      -0.00245400      -0.07968900
P        1.27884241       3.72942108       7.22689350       0.00000000 NULL       0.00346700       0.00245400       0.07968900
P        1.27916593      -1.39046142       4.57544179       0.00000000 NULL      -0.00346700       0.00245400      -0.07968900
P        2.56079498       6.56446792       9.79008998       0.00000000 NULL      -0.01834400       0.03380200      -0.02295100
P       -0.00278664       1.44458542       2.01224531       0.00000000 NULL       0.01834400       0.03380200       0.02295100
P       -0.00278664       8.79517958       9.79008998       0.00000000 NULL       0.01834400      -0.03380200      -0.02295100
P        2.56079498       3.67529708       2.01224531       0.00000000 NULL      -0.01834400      -0.03380200       0.02295100
P        1.27999911       6.51758616       6.82685390       0.00000000 NULL      -0.00657800      -0.01678900       0.00731000
P        1.27800922       1.39770366       4.97548139       0.00000000 NULL       0.00657800      -0.01678900      -0.00731000
P        1.27800922       8.84206134       6.82685390       0.00000000 NULL       0.00657800       0.01678900       0.00731000
P        1.27999911       3.72217884       4.97548139       0.00000000 NULL      -0.00657800       0.01678900      -0.00731000
16
Lattice="2.559385009724016 0.0 0.0 0.0 10.265191909600563 0.0 0.0 0.0 11.74160741053431" Properties=species:S:1:pos:R:3:initial_magmoms:R:1:castep_labels:S:1:forces:R:3 n_minim_iter=7 energy=-87.559186289946 stress="-0.0005627875738641112 0.0 -0.0 0.0 -0.0007442242451916517 -0.0 -0.0 -0.0 -0.00035071705325936405" free_energy=-87.559186289946 pbc="T T T"
P       -0.00116557       1.11969935      -0.20807055       0.00000000 NULL       0.00993100       0.05533000      -0.03801300
P        2.56055058       6.25229530      11.94967796       0.00000000 NULL      -0.00993100       0.05533100       0.03801300
P        2.56055058       4.01289661      -0.20807055       0.00000000 NULL      -0.00993100      -0.05533100      -0.03801300
P       -0.00116557       9.14549256      11.94967796       0.00000000 NULL       0.00993100      -0.05533000       0.03801300
P        1.27968550      11.67325974       7.22730264       0.00000000 NULL       0.00741900      -0.06282800       0.00064500
P        1.27969951       6.54066378       4.51430477       0.00000000 NULL      -0.00741900      -0.06282800      -0.00064500
P        1.27969951       3.72452813       7.22730264       0.00000000 NULL      -0.00741900       0.06282800       0.00064500
P        1.27968550      -1.40806783       4.51430477       0.00000000 NULL       0.00741900       0.06282800      -0.00064500
P        2.55614987       6.58692711       9.73837667       0.00000000 NULL       0.02236900      -0.01902700      -0.04432500
P        0.00323514       1.45433115       2.00323074       0.00000000 NULL      -0.02236900      -0.01902700       0.04432500
P        0.00323514       8.81086076       9.73837667       0.00000000 NULL      -0.02236900       0.01902700      -0.04432500
P        2.55614987       3.67826480       2.00323074       0.00000000 NULL       0.02236900       0.01902700       0.04432500
P        1.27682673       6.53597022       6.77422925       0.00000000 NULL       0.01643600       0.03723200      -0.04682400
P        1.28255828       1.40337427       4.96737816       0.00000000 NULL      -0.01643600       0.03723200       0.04682400
P        1.28255828       8.86181764       6.77422925       0.00000000 NULL      -0.01643600      -0.03723200      -0.04682400
P        1.27682673       3.72922169       4.96737816       0.00000000 NULL       0.01643600      -0.03723200       0.04682400
16
Lattice="2.5596704082474053 0.0 0.0 0.0 10.267501782818378 0.0 0.0 0.0 11.705415856078151" Properties=species:S:1:pos:R:3:initial_magmoms:R:1:castep_labels:S:1:forces:R:3 n_minim_iter=8 energy=-87.562399282079 stress="-0.00046405655536217944 0.0 -0.0 0.0 -0.0008470429896068696 -0.0 -0.0 -0.0 -0.00020881894870038113" free_energy=-87.562399282079 pbc="T T T"
P       -0.00092594       1.12193389      -0.21467795       0.00000000 NULL       0.01012200       0.02968100       0.04606400
P        2.56059635       6.25568478      11.92009381       0.00000000 NULL      -0.01012200       0.02968200      -0.04606400
P        2.56059635       4.01181700      -0.21467795       0.00000000 NULL      -0.01012200      -0.02968200       0.04606400
P       -0.00092594       9.14556789      11.92009381       0.00000000 NULL       0.01012200      -0.02968100      -0.04606400
P        1.28065762      11.67503398       7.22407609       0.00000000 NULL       0.00205500      -0.03386500       0.02331200
P        1.27901278       6.54128309       4.48133976       0.00000000 NULL      -0.00205500      -0.03386500      -0.02331200
P        1.27901278       3.72621870       7.22407609       0.00000000 NULL      -0.00205500       0.03386500       0.02331200
P        1.28065762      -1.40753220       4.48133976       0.00000000 NULL       0.00205500       0.03386500      -0.02331200
P        2.55607558       6.58997170       9.70196844       0.00000000 NULL       0.02394800      -0.03785200       0.01155500
P        0.00359483       1.45622081       2.00344741       0.00000000 NULL      -0.02394800      -0.03785200      -0.01155500
P        0.00359483       8.81128098       9.70196844       0.00000000 NULL      -0.02394800       0.03785200       0.01155500
P        2.55607558       3.67753009       2.00344741       0.00000000 NULL       0.02394800       0.03785100      -0.01155500
P        1.27713317       6.54382672       6.73788124       0.00000000 NULL       0.01352900      -0.02594900      -0.00866400
P        1.28253724       1.41007583       4.96753461       0.00000000 NULL      -0.01352900      -0.02594900       0.00866400
P        1.28253724       8.85742596       6.73788124       0.00000000 NULL      -0.01352900       0.02594900      -0.00866400
P        1.27713317       3.72367507       4.96753461       0.00000000 NULL       0.01352900       0.02594900       0.00866400
16
Lattice="2.5596146192681624 0.0 0.0 0.0 10.257030909757846 0.0 0.0 0.0 11.695896572580908" Properties=species:S:1:pos:R:3:initial_magmoms:R:1:castep_labels:S:1:forces:R:3 n_minim_iter=9 energy=-87.564460882494 stress="-0.00023610661608893085 0.0 -0.0 0.0 -0.00047914988172640554 -0.0 -0.0 -0.0 -0.0002847934286479587" free_energy=-87.564460882494 pbc="T T T"
P        0.00049956       1.12486291      -0.21121707       0.00000000 NULL       0.00031100       0.00013300       0.00926200
P        2.55911506       6.25337836      11.90711364       0.00000000 NULL      -0.00031100       0.00013300      -0.00926200
P        2.55911506       4.00365255      -0.21121707       0.00000000 NULL      -0.00031100      -0.00013300       0.00926200
P        0.00049956       9.13216800      11.90711364       0.00000000 NULL       0.00031100      -0.00013300      -0.00926200
P        1.28127138      11.65863039       7.23420628       0.00000000 NULL      -0.00651400       0.00733100      -0.01961400
P        1.27834324       6.53011493       4.46169029       0.00000000 NULL       0.00651400       0.00733100       0.01961400
P        1.27834324       3.72691598       7.23420628       0.00000000 NULL       0.00651400      -0.00733100      -0.01961400
P        1.28127138      -1.40159948       4.46169029       0.00000000 NULL      -0.00651400      -0.00733100       0.01961400
P        2.55887032       6.58000635       9.69243910       0.00000000 NULL       0.00362000       0.00284700      -0.02939900
P        0.00074430       1.45149089       2.00345747       0.00000000 NULL      -0.00362000       0.00284600       0.02939900
P        0.00074430       8.80554002       9.69243910       0.00000000 NULL      -0.00362000      -0.00284600      -0.02939900
P        2.55887032       3.67702456       2.00345747       0.00000000 NULL       0.00362000      -0.00284700       0.02939900
P        1.27899904       6.53672848       6.72201277       0.00000000 NULL       0.00076400      -0.02175600      -0.03036400
P        1.28061558       1.40821303       4.97388380       0.00000000 NULL      -0.00076400      -0.02175600       0.03036400
P        1.28061558       8.84881788       6.72201277       0.00000000 NULL      -0.00076400       0.02175600      -0.03036400
P        1.27899904       3.72030243       4.97388380       0.00000000 NULL       0.00076400       0.02175600       0.03036400
16
Lattice="2.559730358786547 0.0 0.0 0.0 10.2542942225 0.0 0.0 0.0 11.69955818848399" Properties=species:S:1:pos:R:3:initial_magmoms:R:1:castep_labels:S:1:forces:R:3 n_minim_iter=10 energy=-87.565391060482 stress="-6.08611176311821e-05 -0.0 -0.0 -0.0 -0.0001647711370860254 0.0 -0.0 0.0 -0.00023676896003013646" free_energy=-87.565391060482 pbc="T T T"
P        0.00083010       1.12537147      -0.20796435       0.00000000 NULL      -0.00301800      -0.00100700       0.02193600
P        2.55890026       6.25251858      11.90752254       0.00000000 NULL       0.00301800      -0.00100800      -0.02193600
P        2.55890026       4.00177564      -0.20796435       0.00000000 NULL       0.00301800       0.00100800       0.02193600
P        0.00083010       9.12892275      11.90752254       0.00000000 NULL      -0.00301800       0.00100700      -0.02193600
P        1.28033512      11.65498227       7.24093464       0.00000000 NULL      -0.00253100       0.00416300      -0.00131300
P        1.27939524       6.52783516       4.45862355       0.00000000 NULL       0.00253100       0.00416300       0.00131300
P        1.27939524       3.72645906       7.24093464       0.00000000 NULL       0.00253100      -0.00416300      -0.00131300
P        1.28033512      -1.40068805       4.45862355       0.00000000 NULL      -0.00253100      -0.00416300       0.00131300
P        2.56011623       6.57799306       9.69012797       0.00000000 NULL      -0.00399900      -0.00068400      -0.01126900
P       -0.00038587       1.45084595       2.00943022       0.00000000 NULL       0.00399900      -0.00068400       0.01126900
P       -0.00038587       8.80344827       9.69012797       0.00000000 NULL       0.00399900       0.00068400      -0.01126900
P        2.56011623       3.67630116       2.00943022       0.00000000 NULL      -0.00399900       0.00068400       0.01126900
P        1.27979399       6.53051076       6.71540511       0.00000000 NULL      -0.00097000       0.02963500      -0.00110100
P        1.27993636       1.40336365       4.98415307       0.00000000 NULL       0.00097000       0.02963600       0.00110000
P        1.27993636       8.85093057       6.71540511       0.00000000 NULL       0.00097000      -0.02963600      -0.00110000
P        1.27979399       3.72378346       4.98415307       0.00000000 NULL      -0.00097000      -0.02963500       0.00110100
16
Lattice="2.5603930810165507 0.0 0.0 0.0 10.257085277025976 0.0 0.0 0.0 11.708043005438583" Properties=species:S:1:pos:R:3:initial_magmoms:R:1:castep_labels:S:1:forces:R:3 n_minim_iter=11 energy=-87.566309188563 stress="4.6734959820284135e-05 -0.0 -0.0 -0.0 -6.341904777282816e-05 0.0 -0.0 0.0 -3.814899642950124e-05" free_energy=-87.566309188563 pbc="T T T"
P       -0.00057285       1.12531407      -0.19774031       0.00000000 NULL       0.00416800       0.00881500       0.00083800
P        2.56096593       6.25385671      11.90578331       0.00000000 NULL      -0.00416800       0.00881300      -0.00083800
P        2.56096593       4.00322857      -0.19774031       0.00000000 NULL      -0.00416800      -0.00881300       0.00083800
P       -0.00057285       9.13177121      11.90578331       0.00000000 NULL       0.00416800      -0.00881500      -0.00083800
P        1.27835240      11.65801823       7.25168261       0.00000000 NULL       0.01070000       0.01913200       0.00201600
P        1.28204068       6.52947559       4.45636039       0.00000000 NULL      -0.01070000       0.01913200      -0.00201600
P        1.28204068       3.72760969       7.25168261       0.00000000 NULL      -0.01070000      -0.01913200       0.00201600
P        1.27835240      -1.40093295       4.45636039       0.00000000 NULL       0.01070000      -0.01913200      -0.00201600
P        2.55913053       6.57933604       9.68732637       0.00000000 NULL       0.00857200       0.00014400      -0.00355000
P        0.00126256       1.45079340       2.02071664       0.00000000 NULL      -0.00857200       0.00014400       0.00355000
P        0.00126256       8.80629188       9.68732637       0.00000000 NULL      -0.00857200      -0.00014400      -0.00355000
P        2.55913053       3.67774924       2.02071664       0.00000000 NULL       0.00857200      -0.00014400       0.00355000
P        1.28022017       6.53541257       6.71302108       0.00000000 NULL       0.00508700       0.00123000       0.00227900
P        1.28017291       1.40686993       4.99502192       0.00000000 NULL      -0.00508700       0.00123000      -0.00227900
P        1.28017291       8.85021535       6.71302108       0.00000000 NULL      -0.00508700      -0.00123000       0.00227900
P        1.28022017       3.72167271       4.99502192       0.00000000 NULL       0.00508700      -0.00123000      -0.00227900
16
Lattice="2.5603997663272007 0.0 0.0 0.0 10.257735313350036 0.0 0.0 0.0 11.705940618895909" Properties=species:S:1:pos:R:3:initial_magmoms:R:1:castep_labels:S:1:forces:R:3 n_minim_iter=12 energy=-87.566513332248 stress="4.358521310267494e-05 0.0 0.0 0.0 -0.0001251611194172337 0.0 0.0 0.0 7.080970815262936e-05" free_energy=-87.566513332248 pbc="T T T"
P       -0.00032760       1.12687491      -0.19561007       0.00000000 NULL       0.00183000      -0.00454800       0.00101100
P        2.56072737       6.25574256      11.90155068       0.00000000 NULL      -0.00183000      -0.00455000      -0.00101100
P        2.56072737       4.00199275      -0.19561007       0.00000000 NULL      -0.00183000       0.00455000       0.00101100
P       -0.00032760       9.13086041      11.90155068       0.00000000 NULL       0.00183000       0.00454800      -0.00101100
P        1.27951800      11.66122027       7.25240546       0.00000000 NULL       0.00164800       0.00162700       0.00078700
P        1.28088176       6.53235262       4.45353516       0.00000000 NULL      -0.00164800       0.00162700      -0.00078700
P        1.28088176       3.72538270       7.25240546       0.00000000 NULL      -0.00164800      -0.00162700       0.00078700
P        1.27951800      -1.40348496       4.45353516       0.00000000 NULL       0.00164800      -0.00162700      -0.00078700
P        2.55994408       6.57954667       9.68231682       0.00000000 NULL       0.00307500       0.00076800       0.00149100
P        0.00045569       1.45067901       2.02362380       0.00000000 NULL      -0.00307500       0.00076900      -0.00149100
P        0.00045569       8.80705630       9.68231682       0.00000000 NULL      -0.00307500      -0.00076900       0.00149100
P        2.55994408       3.67818864       2.02362380       0.00000000 NULL       0.00307500      -0.00076800      -0.00149100
P        1.28109539       6.53651111       6.71089437       0.00000000 NULL      -0.00289500      -0.00091900      -0.00178500
P        1.27930437       1.40764345       4.99504625       0.00000000 NULL       0.00289500      -0.00091800       0.00178500
P        1.27930437       8.85009186       6.71089437       0.00000000 NULL       0.00289500       0.00091800      -0.00178500
P        1.28109539       3.72122420       4.99504625       0.00000000 NULL      -0.00289500       0.00091900       0.00178500
