9
Lattice="4.286859999999999 -9.265112972380811e-16 -2.3425885045966555e-16 1.3659032649952334 6.844835769744617 -5.099936766082187e-16 1.3097293523794675 3.1518822996102647 6.911717291999088" Properties=species:S:1:pos:R:3:initial_magmoms:R:1:castep_labels:S:1 n_minim_iter=1 pbc="T T T"
P        1.58341756       2.48233448       2.11343588       0.00000000 NULL
P        3.01011093       4.49590295       4.56304457       0.00000000 NULL
P        6.03173232       6.79441866       6.73925198       0.00000000 NULL
P        2.77145803       8.09336461       3.74415190       0.00000000 NULL
P        3.42987285       4.69688063       1.09057775       0.00000000 NULL
P        1.29008671       0.14921158       0.14290736       0.00000000 NULL
P        3.74912417       6.35888678       4.10986192       0.00000000 NULL
P        5.10288255       6.04394068       0.20227694       0.00000000 NULL
P        3.49643498       7.80783469       6.40060617       0.00000000 NULL
9
Lattice="4.293620190516997 -0.0005333223124353088 0.000556025886859518 1.3672056781037085 6.851464739878412 0.0015578757967062596 1.3122990991237606 3.156244290887402 6.915731162379904" Properties=species:S:1:pos:R:3:initial_magmoms:R:1:castep_labels:S:1 n_minim_iter=2 pbc="T T T"
P        1.58592141       2.48499860       2.11506246       0.00000000 NULL
P        3.01483570       4.50087273       4.56650990       0.00000000 NULL
P        6.04121621       6.80136944       6.74448387       0.00000000 NULL
P        2.77513542       8.10193297       3.74787505       0.00000000 NULL
P        3.43493662       4.70131425       1.09290678       0.00000000 NULL
P        1.29226272       0.14948334       0.14314890       0.00000000 NULL
P        3.75495657       6.36547530       4.11354194       0.00000000 NULL
P        5.10999386       6.04957098       0.20428646       0.00000000 NULL
P        3.50184136       7.81644637       6.40522582       0.00000000 NULL
9
Lattice="4.528680792250874 -0.019622902555442287 0.020616020499281348 1.411621637967874 7.076889114996191 0.05770211491999763 1.4024225627414195 3.3072540731729094 7.052288114078563" Properties=species:S:1:pos:R:3:initial_magmoms:R:1:castep_labels:S:1 n_minim_iter=3 pbc="T T T"
P        1.67307054       2.57610462       2.17129061       0.00000000 NULL
P        3.17926786       4.67130978       4.68598432       0.00000000 NULL
P        6.37125799       7.03888864       6.92515855       0.00000000 NULL
P        2.90235254       8.39472050       3.87768108       0.00000000 NULL
P        3.61083322       4.85201621       1.17496405       0.00000000 NULL
P        1.36802104       0.15878295       0.15181959       0.00000000 NULL
P        3.95788549       6.59052852       4.24135554       0.00000000 NULL
P        5.35632728       6.24063125       0.27642384       0.00000000 NULL
P        3.68982255       8.11140804       6.56476020       0.00000000 NULL
9
Lattice="4.597063092559328 -0.034143991612417664 0.045100111011257486 1.4102241436401817 7.036531683645297 0.1327222515650788 1.4521140978272347 3.3542401432010336 7.047400646604601" Properties=species:S:1:pos:R:3:initial_magmoms:R:1:castep_labels:S:1 n_minim_iter=4 pbc="T T T"
P        1.70257095       2.57661269       2.19024890       0.00000000 NULL
P        3.23690656       4.68383659       4.72033430       0.00000000 NULL
P        6.48218976       7.04037028       6.98452853       0.00000000 NULL
P        2.93619765       8.38147610       3.94933044       0.00000000 NULL
P        3.65953988       4.82581702       1.24144003       0.00000000 NULL
P        1.39077947       0.15881472       0.15934999       0.00000000 NULL
P        4.02357748       6.58308191       4.29938722       0.00000000 NULL
P        5.41620277       6.19950992       0.36324800       0.00000000 NULL
P        3.75413525       8.12256737       6.61394071       0.00000000 NULL
9
Lattice="4.741770407369956 -0.06454493892890895 0.10820795995082316 1.4077903581054227 6.892319098421366 0.31823847352296986 1.5757222447575518 3.4500306390925677 6.996642389059973" Properties=species:S:1:pos:R:3:initial_magmoms:R:1:castep_labels:S:1 n_minim_iter=5 pbc="T T T"
P        1.77122390       2.56454874       2.22220326       0.00000000 NULL
P        3.36886017       4.68634871       4.78230414       0.00000000 NULL
P        6.73461781       7.00414067       7.09626850       0.00000000 NULL
P        3.01326244       8.29578074       4.10878429       0.00000000 NULL
P        3.76800589       4.73318890       1.40080122       0.00000000 NULL
P        1.44030081       0.15932748       0.17739994       0.00000000 NULL
P        4.17938748       6.52678751       4.42139802       0.00000000 NULL
P        5.54445445       6.06466107       0.57826486       0.00000000 NULL
P        3.90608539       8.10241236       6.70108661       0.00000000 NULL
9
Lattice="4.7963119989435485 -0.04749795867464766 0.13444275315088303 1.4523876433489114 6.915904545644667 0.33959099270871324 1.6472179951547024 3.476718675223677 6.997921811885878" Properties=species:S:1:pos:R:3:initial_magmoms:R:1:castep_labels:S:1 n_minim_iter=6 pbc="T T T"
P        1.81601162       2.58770421       2.21577634       0.00000000 NULL
P        3.44404495       4.71191527       4.80694251       0.00000000 NULL
P        6.87705267       7.04265472       7.13594830       0.00000000 NULL
P        3.08769558       8.32956160       4.14726687       0.00000000 NULL
P        3.84257367       4.75780428       1.43992632       0.00000000 NULL
P        1.46207613       0.17290411       0.18161225       0.00000000 NULL
P        4.29557294       6.56805138       4.45016263       0.00000000 NULL
P        5.63570193       6.11289420       0.61746709       0.00000000 NULL
P        4.01779121       8.15455298       6.71536069       0.00000000 NULL
9
Lattice="4.778279825545075 -0.04816375259352017 0.141447058017507 1.445579057448949 6.8505241737641285 0.36178324768639447 1.6525123141223852 3.4666623964355074 6.951283813346609" Properties=species:S:1:pos:R:3:initial_magmoms:R:1:castep_labels:S:1 n_minim_iter=7 pbc="T T T"
P        1.81294339       2.57116260       2.20307247       0.00000000 NULL
P        3.43528253       4.68044937       4.78884505       0.00000000 NULL
P        6.86182171       6.99242487       7.11034348       0.00000000 NULL
P        3.07561152       8.26131107       4.14739181       0.00000000 NULL
P        3.83081829       4.71459696       1.45227013       0.00000000 NULL
P        1.45757130       0.17357927       0.18134205       0.00000000 NULL
P        4.29113383       6.51914087       4.44099765       0.00000000 NULL
P        5.61468384       6.05859489       0.64075014       0.00000000 NULL
P        4.01077526       8.10018701       6.68794460       0.00000000 NULL
9
Lattice="4.7841649130125825 -0.04567296460139269 0.14718587648304646 1.451431241782013 6.8481717152109285 0.37195260999412055 1.6653943847302237 3.4743970159224946 6.937567338218803" Properties=species:S:1:pos:R:3:initial_magmoms:R:1:castep_labels:S:1 n_minim_iter=8 pbc="T T T"
P        1.81998355       2.57519767       2.19697602       0.00000000 NULL
P        3.44504170       4.68335315       4.78742839       0.00000000 NULL
P        6.88287115       6.99587695       7.10863879       0.00000000 NULL
P        3.08360186       8.26192935       4.15430052       0.00000000 NULL
P        3.84106259       4.71463998       1.46237631       0.00000000 NULL
P        1.46076524       0.17713416       0.18147334       0.00000000 NULL
P        4.31160660       6.52387313       4.44302483       0.00000000 NULL
P        5.62603721       6.06293085       0.65366689       0.00000000 NULL
P        4.02772272       8.10811319       6.68171483       0.00000000 NULL
9
Lattice="4.787645935955075 -0.042038995326776685 0.15707006539181526 1.4583427489176934 6.834859889276233 0.39195654874402563 1.685066070009471 3.4858635942423986 6.9065862178832" Properties=species:S:1:pos:R:3:initial_magmoms:R:1:castep_labels:S:1 n_minim_iter=9 pbc="T T T"
P        1.82927172       2.57926697       2.18480980       0.00000000 NULL
P        3.45642176       4.68369196       4.78093135       0.00000000 NULL
P        6.90896536       6.99433321       7.09996022       0.00000000 NULL
P        3.09166189       8.25307839       4.16434234       0.00000000 NULL
P        3.85269162       4.70832451       1.47989207       0.00000000 NULL
P        1.46421687       0.18305306       0.18152243       0.00000000 NULL
P        4.34010977       6.52450010       4.44395655       0.00000000 NULL
P        5.63688271       6.06181139       0.67796301       0.00000000 NULL
P        4.05009548       8.11329159       6.66614166       0.00000000 NULL
9
Lattice="4.791494827711487 -0.020502629328444245 0.20798582036262295 1.4939562520767513 6.793251085353548 0.5003412150916365 1.7841680703926164 3.5631858912750713 6.734346927246126" Properties=species:S:1:pos:R:3:initial_magmoms:R:1:castep_labels:S:1 n_minim_iter=10 pbc="T T T"
P        1.87368534       2.61252333       2.11797534       0.00000000 NULL
P        3.50584249       4.70670106       4.73942734       0.00000000 NULL
P        7.02926347       7.01704778       7.04542100       0.00000000 NULL
P        3.12539352       8.24047829       4.21339063       0.00000000 NULL
P        3.90518797       4.69612107       1.57108493       0.00000000 NULL
P        1.47897442       0.21888555       0.18193773       0.00000000 NULL
P        4.48259222       6.55811885       4.44719040       0.00000000 NULL
P        5.68063536       6.08624252       0.80886892       0.00000000 NULL
P        4.15752434       8.17790236       6.57830768       0.00000000 NULL
9
Lattice="4.677649014591052 0.018079064338561577 0.22525123320463952 1.5192855114932027 6.967957218322782 0.5560631712239117 1.8055896719290194 3.700472196826477 6.6304236078361125" Properties=species:S:1:pos:R:3:initial_magmoms:R:1:castep_labels:S:1 n_minim_iter=11 pbc="T T T"
P        1.87077020       2.71727187       2.05400641       0.00000000 NULL
P        3.45671783       4.85375486       4.70132998       0.00000000 NULL
P        6.96578569       7.21554519       7.00108016       0.00000000 NULL
P        3.08793562       8.44893232       4.23815092       0.00000000 NULL
P        3.87143817       4.83247538       1.61765103       0.00000000 NULL
P        1.45997737       0.27970052       0.17979760       0.00000000 NULL
P        4.50356243       6.77651924       4.44566157       0.00000000 NULL
P        5.60750929       6.32887123       0.87010083       0.00000000 NULL
P        4.14587258       8.46206337       6.50556616       0.00000000 NULL
9
Lattice="4.603722560734269 0.0034330507083933435 0.22730467628347967 1.472345340208757 6.893385564820893 0.5917019375991102 1.7755459243799578 3.699134244466567 6.543547705313871" Properties=species:S:1:pos:R:3:initial_magmoms:R:1:castep_labels:S:1 n_minim_iter=12 pbc="T T T"
P        1.83669921       2.69569788       2.03442329       0.00000000 NULL
P        3.39112821       4.82274286       4.65658704       0.00000000 NULL
P        6.84643562       7.15317257       6.94029135       0.00000000 NULL
P        3.01127503       8.37291550       4.22280512       0.00000000 NULL
P        3.79809875       4.77624452       1.62612319       0.00000000 NULL
P        1.43868131       0.28052120       0.18009623       0.00000000 NULL
P        4.41919440       6.71773168       4.41969978       0.00000000 NULL
P        5.49828312       6.25614506       0.90164459       0.00000000 NULL
P        4.05803662       8.40542879       6.44976652       0.00000000 NULL
9
Lattice="4.61858491000524 0.002545224350879652 0.22890675282629622 1.4756632712318134 6.963002929809444 0.5968301487909704 1.7820169617005681 3.7357132473080044 6.56289958074669" Properties=species:S:1:pos:R:3:initial_magmoms:R:1:castep_labels:S:1 n_minim_iter=13 pbc="T T T"
P        1.84359972       2.72312693       2.03857501       0.00000000 NULL
P        3.40030610       4.87020109       4.67104361       0.00000000 NULL
P        6.86973343       7.21715641       6.96492799       0.00000000 NULL
P        3.01577639       8.45378654       4.23937113       0.00000000 NULL
P        3.81041056       4.82238743       1.63504311       0.00000000 NULL
P        1.44562457       0.28823867       0.18215233       0.00000000 NULL
P        4.43584712       6.78389138       4.43638368       0.00000000 NULL
P        5.51383858       6.32286248       0.90829745       0.00000000 NULL
P        4.06947657       8.49145639       6.46916137       0.00000000 NULL
9
Lattice="4.603758707739786 0.0017948978737350521 0.2304723702095507 1.4697412164897392 6.977116516098029 0.6033072049579417 1.779459810710539 3.7481296848589905 6.551582949080865" Properties=species:S:1:pos:R:3:initial_magmoms:R:1:castep_labels:S:1 n_minim_iter=14 pbc="T T T"
P        1.83922149       2.73019885       2.03494313       0.00000000 NULL
P        3.38977259       4.88312436       4.66580004       0.00000000 NULL
P        6.85170843       7.23052648       6.96056798       0.00000000 NULL
P        3.00332172       8.47039571       4.23967386       0.00000000 NULL
P        3.79897275       4.83088097       1.63870107       0.00000000 NULL
P        1.44281981       0.29319018       0.18340934       0.00000000 NULL
P        4.42453888       6.79947269       4.43550424       0.00000000 NULL
P        5.49467678       6.33873512       0.91515067       0.00000000 NULL
P        4.05663334       8.51506214       6.46205095       0.00000000 NULL
9
Lattice="4.5683978426912315 0.0005375393255905275 0.23376517130987456 1.4564667139893934 7.020116560786537 0.6174113245123329 1.7730408236833057 3.780913009992381 6.527494537603048" Properties=species:S:1:pos:R:3:initial_magmoms:R:1:castep_labels:S:1 n_minim_iter=15 pbc="T T T"
P        1.82919417       2.75039130       2.02635653       0.00000000 NULL
P        3.36451714       4.91957742       4.65431365       0.00000000 NULL
P        6.80914991       7.26961088       6.95238209       0.00000000 NULL
P        2.97355448       8.51949237       4.24069228       0.00000000 NULL
P        3.77224505       4.85705992       1.64698385       0.00000000 NULL
P        1.43664189       0.30679574       0.18673022       0.00000000 NULL
P        4.39816155       6.84471182       4.43414809       0.00000000 NULL
P        5.44943760       6.38611655       0.92992556       0.00000000 NULL
P        4.02606163       8.58192878       6.44617315       0.00000000 NULL
9
Lattice="4.447879616045449 -0.0025936696984637008 0.23820228345569364 1.4130669176822341 7.157084919538945 0.6499381485081226 1.7410716442631193 3.8749034574631716 6.457680085781182" Properties=species:S:1:pos:R:3:initial_magmoms:R:1:castep_labels:S:1 n_minim_iter=16 pbc="T T T"
P        1.79360819       2.81176228       1.99724379       0.00000000 NULL
P        3.27325391       5.03066567       4.61436355       0.00000000 NULL
P        6.65548359       7.38205676       6.92327601       0.00000000 NULL
P        2.86912329       8.66613359       4.23420212       0.00000000 NULL
P        3.67959552       4.93612514       1.66310483       0.00000000 NULL
P        1.41595114       0.35584537       0.19770436       0.00000000 NULL
P        4.30137942       6.98193104       4.42261422       0.00000000 NULL
P        5.29537217       6.53787642       0.96013080       0.00000000 NULL
P        3.91457091       8.78912328       6.38984683       0.00000000 NULL
9
Lattice="4.359346073476025 -0.03283606418516949 0.228004215766013 1.3365697896205562 7.190534213420864 0.6398083582564438 1.6753448400172293 3.8785558333911028 6.4643800881223905" Properties=species:S:1:pos:R:3:initial_magmoms:R:1:castep_labels:S:1 n_minim_iter=17 pbc="T T T"
P        1.75608639       2.81400886       1.98159279       0.00000000 NULL
P        3.16027527       5.04272949       4.60021560       0.00000000 NULL
P        6.48558037       7.33225784       6.94188698       0.00000000 NULL
P        2.71577960       8.65639944       4.22340612       0.00000000 NULL
P        3.57575870       4.91324407       1.65758249       0.00000000 NULL
P        1.40883349       0.40506817       0.21171148       0.00000000 NULL
P        4.17616691       6.97955323       4.42049471       0.00000000 NULL
P        5.13248212       6.56163600       0.93810657       0.00000000 NULL
P        3.75793459       8.83780215       6.36252642       0.00000000 NULL
9
Lattice="4.270429737756509 -0.03167501951257909 0.19747868919332598 1.3100926121140624 7.1243276332703305 0.6512260140431786 1.599816208686818 3.8696041399343617 6.375849467929245" Properties=species:S:1:pos:R:3:initial_magmoms:R:1:castep_labels:S:1 n_minim_iter=18 pbc="T T T"
P        1.72347398       2.78865953       1.95018694       0.00000000 NULL
P        3.06234156       5.01789429       4.52882445       0.00000000 NULL
P        6.32069480       7.27414924       6.84905018       0.00000000 NULL
P        2.61760901       8.56973525       4.17374228       0.00000000 NULL
P        3.49434236       4.85446436       1.63274044       0.00000000 NULL
P        1.39397961       0.43989529       0.21062178       0.00000000 NULL
P        4.07187183       6.92871667       4.36112499       0.00000000 NULL
P        5.01865418       6.51147300       0.91640999       0.00000000 NULL
P        3.63948678       8.79947643       6.26829388       0.00000000 NULL
9
Lattice="4.303520385680049 -0.03346428552922562 0.20202493022771903 1.3177792153638148 7.220498090519366 0.6497075080311862 1.6159404977372087 3.9106081373954504 6.449123168830823" Properties=species:S:1:pos:R:3:initial_magmoms:R:1:castep_labels:S:1 n_minim_iter=19 pbc="T T T"
P        1.74077225       2.82195988       1.97085825       0.00000000 NULL
P        3.08618262       5.07760665       4.57690181       0.00000000 NULL
P        6.37234089       7.35658981       6.92716133       0.00000000 NULL
P        2.63334408       8.67570931       4.21287601       0.00000000 NULL
P        3.52047958       4.91513757       1.64878828       0.00000000 NULL
P        1.40717143       0.45115361       0.21546290       0.00000000 NULL
P        4.10608555       7.01398480       4.40686438       0.00000000 NULL
P        5.05367291       6.59959409       0.92078975       0.00000000 NULL
P        3.66885013       8.91057267       6.33173002       0.00000000 NULL
9
Lattice="4.289709333403317 -0.037222845139012764 0.2015821124376744 1.3073773630388976 7.207034988866825 0.650794690881135 1.608243509863365 3.9050521119459285 6.448908763994247" Properties=species:S:1:pos:R:3:initial_magmoms:R:1:castep_labels:S:1 n_minim_iter=20 pbc="T T T"
P        1.73555023       2.81525010       1.97091771       0.00000000 NULL
P        3.07171638       5.06850558       4.57629959       0.00000000 NULL
P        6.34723684       7.33947171       6.92932859       0.00000000 NULL
P        2.61503546       8.65709003       4.21261252       0.00000000 NULL
P        3.50500027       4.90172560       1.64939170       0.00000000 NULL
P        1.40393589       0.45394619       0.21646425       0.00000000 NULL
P        4.08802369       6.99930108       4.40740875       0.00000000 NULL
P        5.03083288       6.58478872       0.92114805       0.00000000 NULL
P        3.64927108       8.89665889       6.33041978       0.00000000 NULL
9
Lattice="4.280118688231885 -0.039849997399986896 0.20079923541800593 1.3001267601916997 7.207338406824493 0.6518599680493483 1.6021195289464774 3.9061021985680213 6.455235203816467" Properties=species:S:1:pos:R:3:initial_magmoms:R:1:castep_labels:S:1 n_minim_iter=21 pbc="T T T"
P        1.73292535       2.81372795       1.97268399       0.00000000 NULL
P        3.06071329       5.06887081       4.57972963       0.00000000 NULL
P        6.32928286       7.33628455       6.93793156       0.00000000 NULL
P        2.60043900       8.65427696       4.21580145       0.00000000 NULL
P        3.49394868       4.89792191       1.65111624       0.00000000 NULL
P        1.40250421       0.45879283       0.21772078       0.00000000 NULL
P        4.07544943       6.99808221       4.41171560       0.00000000 NULL
P        5.01439028       6.58381596       0.92132103       0.00000000 NULL
P        3.63472097       8.89970343       6.33451901       0.00000000 NULL
9
Lattice="4.233325963618343 -0.04909185569831172 0.19409099842492353 1.2704609120914703 7.2179466018193255 0.6579589195673576 1.5702126105693714 3.917836233594438 6.482095499350728" Properties=species:S:1:pos:R:3:initial_magmoms:R:1:castep_labels:S:1 n_minim_iter=22 pbc="T T T"
P        1.72149449       2.81049962       1.97978340       0.00000000 NULL
P        3.00751853       5.07932043       4.59303892       0.00000000 NULL
P        6.24243695       7.33499241       6.97423954       0.00000000 NULL
P        2.53284099       8.65232568       4.22930315       0.00000000 NULL
P        3.44266218       4.88740287       1.65782610       0.00000000 NULL
P        1.39599648       0.48552029       0.22304683       0.00000000 NULL
P        4.01675375       7.00396305       4.42932318       0.00000000 NULL
P        4.93904182       6.59081120       0.92028196       0.00000000 NULL
P        3.56638524       8.92889383       6.35025685       0.00000000 NULL
9
Lattice="4.147771111363694 -0.04279875261461395 0.1652005713660458 1.2532491545484614 7.2754232574189155 0.6854652791211454 1.5021205699397828 3.98237251259496 6.49010515046388" Properties=species:S:1:pos:R:3:initial_magmoms:R:1:castep_labels:S:1 n_minim_iter=23 pbc="T T T"
P        1.70953925       2.82714586       1.98254834       0.00000000 NULL
P        2.91669031       5.14711612       4.59091580       0.00000000 NULL
P        6.09065800       7.41895187       6.99311382       0.00000000 NULL
P        2.43643768       8.70839984       4.24277725       0.00000000 NULL
P        3.36617505       4.91035983       1.66347858       0.00000000 NULL
P        1.38596315       0.54921896       0.22652362       0.00000000 NULL
P        3.92774755       7.07801153       4.43759578       0.00000000 NULL
P        4.83414306       6.65890682       0.91770660       0.00000000 NULL
P        3.46249765       9.05671779       6.34850377       0.00000000 NULL
9
Lattice="4.110433934026252 -0.07904032210577405 0.18024473544462527 1.183485606488651 7.305496708043823 0.7267959182456262 1.488322650372193 4.027359556399205 6.630604071802338" Properties=species:S:1:pos:R:3:initial_magmoms:R:1:castep_labels:S:1 n_minim_iter=24 pbc="T T T"
P        1.70991428       2.82447845       2.04000244       0.00000000 NULL
P        2.86445248       5.17904215       4.69887728       0.00000000 NULL
P        6.00918858       7.44204808       7.18297192       0.00000000 NULL
P        2.33680958       8.73336069       4.34922893       0.00000000 NULL
P        3.29900583       4.89962985       1.72719255       0.00000000 NULL
P        1.37973091       0.57966824       0.24256109       0.00000000 NULL
P        3.86006758       7.09646047       4.55580992       0.00000000 NULL
P        4.73027088       6.65830951       0.97151906       0.00000000 NULL
P        3.38052401       9.12496215       6.49383662       0.00000000 NULL
9
Lattice="4.0650591141537715 -0.052639784891496705 0.16037021658270337 1.2111818053037129 7.269013052161328 0.7285276167659416 1.4618267062106922 4.022895204229935 6.545074510329246" Properties=species:S:1:pos:R:3:initial_magmoms:R:1:castep_labels:S:1 n_minim_iter=25 pbc="T T T"
P        1.70221467       2.81782903       2.01212342       0.00000000 NULL
P        2.83957361       5.17300766       4.63615162       0.00000000 NULL
P        5.95294824       7.44627287       7.08357991       0.00000000 NULL
P        2.33833981       8.69679781       4.29968853       0.00000000 NULL
P        3.28266624       4.88875163       1.70124237       0.00000000 NULL
P        1.36922259       0.59274423       0.23469334       0.00000000 NULL
P        3.83785632       7.08420340       4.49424702       0.00000000 NULL
P        4.71378568       6.64855000       0.95308337       0.00000000 NULL
P        3.36492765       9.10394475       6.41098844       0.00000000 NULL
9
Lattice="4.0765596327138525 -0.049831066444314474 0.15628373371246188 1.2193308496729676 7.318831274804965 0.7304374917922392 1.4608168067426168 4.049524646353882 6.570471499471688" Properties=species:S:1:pos:R:3:initial_magmoms:R:1:castep_labels:S:1 n_minim_iter=26 pbc="T T T"
P        1.71061799       2.83588298       2.01913605       0.00000000 NULL
P        2.84505006       5.20881061       4.65142195       0.00000000 NULL
P        5.96676343       7.49902071       7.10787332       0.00000000 NULL
P        2.34307740       8.75372207       4.31400209       0.00000000 NULL
P        3.29283902       4.92234414       1.70570502       0.00000000 NULL
P        1.37465044       0.60252451       0.23469304       0.00000000 NULL
P        3.84962805       7.13302157       4.50821086       0.00000000 NULL
P        4.73032070       6.69732692       0.95188307       0.00000000 NULL
P        3.37331544       9.16844577       6.43182919       0.00000000 NULL
