18
Lattice="5.466440000000003 2.7673924380905003e-17 0.0 -2.7332200000000015 4.734075908263408 0.0 0.0 0.0 15.641699999999998" Properties=species:S:1:pos:R:3:initial_magmoms:R:1:castep_labels:S:1 n_minim_iter=1 pbc="T T T"
P       -2.26263249       4.32024335      15.16880292       0.00000000 NULL
P        0.12309548       0.61445749       4.74100292       0.00000000 NULL
P        2.13953619       4.53345145       9.95490292       0.00000000 NULL
P        3.18656909       2.32212720       1.86506625       0.00000000 NULL
P        1.86213404       1.59858666       7.07896625       0.00000000 NULL
P        3.15095606       0.81336252      12.29286625       0.00000000 NULL
P        1.62553832       2.50159649      10.51634506       0.00000000 NULL
P        2.48722446       0.15695971       0.08854506       0.00000000 NULL
P        4.08689640       2.07552018       5.30244506       0.00000000 NULL
P        0.41007948       0.22981998       6.74576311       0.00000000 NULL
P        5.06237005       0.24022973      11.95966311       0.00000000 NULL
P        2.72720966       4.26402667       1.53186311       0.00000000 NULL
P        2.78788686       1.32068646       9.29119483       0.00000000 NULL
P        2.92874827       1.75403809      14.50509483       0.00000000 NULL
P        2.48302405       1.65935183       4.07729483       0.00000000 NULL
P        3.11922938       2.77278708      11.85542630       0.00000000 NULL
P        1.50552099       1.31493882       1.42762630       0.00000000 NULL
P        3.57490881       0.64635048       6.64152630       0.00000000 NULL
18
Lattice="5.4828755724452325 7.796248661736504e-16 0.0 -2.7414377862226167 4.748309531526718 0.0 0.0 0.0 15.680166097434707" Properties=species:S:1:pos:R:3:initial_magmoms:R:1:castep_labels:S:1 n_minim_iter=2 pbc="T T T"
P       -2.26947329       4.33321687      15.20586212       0.00000000 NULL
P        0.12349827       0.61628005       4.75241805       0.00000000 NULL
P        2.14597419       4.54712262       9.97914009       0.00000000 NULL
P        3.19652130       2.32901104       1.86990625       0.00000000 NULL
P        1.86763192       1.60376360       7.09662828       0.00000000 NULL
P        3.16015932       0.81553536      12.32335031       0.00000000 NULL
P        1.63006938       2.50913437      10.54207279       0.00000000 NULL
P        2.49486650       0.15711478       0.08862873       0.00000000 NULL
P        4.09937665       2.08206085       5.31535076       0.00000000 NULL
P        0.41128627       0.23021133       6.76253522       0.00000000 NULL
P        5.07786330       0.24107917      11.98925726       0.00000000 NULL
P        2.73516296       4.27701950       1.53581319       0.00000000 NULL
P        2.79635085       1.32452682       9.31387402       0.00000000 NULL
P        2.93762600       1.75944794      14.54059605       0.00000000 NULL
P        2.49033569       1.66433525       4.08715199       0.00000000 NULL
P        3.12883159       2.78136325      11.88469261       0.00000000 NULL
P        1.50972827       1.31896649       1.43124855       0.00000000 NULL
P        3.58575268       0.64798026       6.65797058       0.00000000 NULL
18
Lattice="5.713961954808063 -5.851670808899208e-16 0.0 -2.8569809774040307 4.9484362091215734 0.0 0.0 0.0 16.206925098416466" Properties=species:S:1:pos:R:3:initial_magmoms:R:1:castep_labels:S:1 n_minim_iter=3 pbc="T T T"
P       -2.36563490       4.51563343      15.71318913       0.00000000 NULL
P        0.12914488       0.64192007       4.90857240       0.00000000 NULL
P        2.23648916       4.73931941      10.31088076       0.00000000 NULL
P        3.33670722       2.42573281       1.93647977       0.00000000 NULL
P        1.94486183       1.67680731       7.33878814       0.00000000 NULL
P        3.28937303       0.84589659      12.74109650       0.00000000 NULL
P        1.69357013       2.61517885      10.89421450       0.00000000 NULL
P        2.60236528       0.15908583       0.08959776       0.00000000 NULL
P        4.27500666       2.17417202       5.49190613       0.00000000 NULL
P        0.42828951       0.23551817       6.99235497       0.00000000 NULL
P        5.29585219       0.25315101      12.39466333       0.00000000 NULL
P        2.84680037       4.45976752       1.59004660       0.00000000 NULL
P        2.91538131       1.37845760       9.62427479       0.00000000 NULL
P        3.06249172       1.83556597      15.02658316       0.00000000 NULL
P        2.59306905       1.73441314       4.22196642       0.00000000 NULL
P        3.26398842       2.90205246      12.28554710       0.00000000 NULL
P        1.56871631       1.37567115       1.48093037       0.00000000 NULL
P        3.73823735       0.67071309       6.88323873       0.00000000 NULL
18
Lattice="5.770176035316508 -1.813787003619656e-16 0.0 -2.8850880176582536 4.997119030892269 0.0 0.0 0.0 16.16448320997195" Properties=species:S:1:pos:R:3:initial_magmoms:R:1:castep_labels:S:1 n_minim_iter=4 pbc="T T T"
P       -2.38850097       4.56009632      15.67076399       0.00000000 NULL
P        0.13017896       0.64856885       4.89444185       0.00000000 NULL
P        2.25832115       4.78557339      10.28260292       0.00000000 NULL
P        3.37280093       2.44865912       1.93472817       0.00000000 NULL
P        1.96317428       1.69660223       7.32288924       0.00000000 NULL
P        3.31928797       0.85185818      12.71105031       0.00000000 NULL
P        1.70780902       2.64181334      10.86385557       0.00000000 NULL
P        2.62839377       0.15809983       0.08753343       0.00000000 NULL
P        4.31906039       2.19720636       5.47569450       0.00000000 NULL
P        0.43302783       0.23537980       6.97515263       0.00000000 NULL
P        5.34981694       0.25732370      12.36331370       0.00000000 NULL
P        2.87241842       4.50441603       1.58699156       0.00000000 NULL
P        2.94421009       1.39117790       9.59720738       0.00000000 NULL
P        3.09327530       1.85417228      14.98536845       0.00000000 NULL
P        2.61777780       1.75176935       4.20904631       0.00000000 NULL
P        3.29793146       2.93195426      12.25391564       0.00000000 NULL
P        1.58206315       1.39011579       1.47759350       0.00000000 NULL
P        3.77526858       0.67504948       6.86575457       0.00000000 NULL
18
Lattice="5.80219721387881 6.996767360815691e-16 0.0 -2.9010986069394056 5.024850184986341 0.0 0.0 0.0 16.02029838912406" Properties=species:S:1:pos:R:3:initial_magmoms:R:1:castep_labels:S:1 n_minim_iter=5 pbc="T T T"
P       -2.40080717       4.58559587      15.52936574       0.00000000 NULL
P        0.13025939       0.65289275       4.84916682       0.00000000 NULL
P        2.27054692       4.81121225      10.18926628       0.00000000 NULL
P        3.39532171       2.46106636       1.92187082       0.00000000 NULL
P        1.97319008       1.70990218       7.26197028       0.00000000 NULL
P        3.33478316       0.85388215      12.60206975       0.00000000 NULL
P        1.71454865       2.65794128      10.76459259       0.00000000 NULL
P        2.64307793       0.15587255       0.08439367       0.00000000 NULL
P        4.34566837       2.21103686       5.42449313       0.00000000 NULL
P        0.43645190       0.23377888       6.91448630       0.00000000 NULL
P        5.38151252       0.26108949      12.25458577       0.00000000 NULL
P        2.88533053       4.52998231       1.57438684       0.00000000 NULL
P        2.96040709       1.39799965       9.50904168       0.00000000 NULL
P        3.11129017       1.86478842      14.84914114       0.00000000 NULL
P        2.63159769       1.76206262       4.16894221       0.00000000 NULL
P        3.31846741       2.94956280      12.14519767       0.00000000 NULL
P        1.58856691       1.39909618       1.46499875       0.00000000 NULL
P        3.79626064       0.67619171       6.80509821       0.00000000 NULL
18
Lattice="5.835483448139468 8.534576154032895e-17 0.0 -2.917741724069734 5.05367690945239 0.0 0.0 0.0 15.739327957530163" Properties=species:S:1:pos:R:3:initial_magmoms:R:1:castep_labels:S:1 n_minim_iter=6 pbc="T T T"
P       -2.41172931       4.61270292      15.25249966       0.00000000 NULL
P        0.12888818       0.65870711       4.75961435       0.00000000 NULL
P        2.28284025       4.83594430      10.00605700       0.00000000 NULL
P        3.42278688       2.47251670       1.89794451       0.00000000 NULL
P        1.98282745       1.72796254       7.14438717       0.00000000 NULL
P        3.34760998       0.85319817      12.39082982       0.00000000 NULL
P        1.71826154       2.67695227      10.57069019       0.00000000 NULL
P        2.65804372       0.14958251       0.07780489       0.00000000 NULL
P        4.37691904       2.22714263       5.32424754       0.00000000 NULL
P        0.44179845       0.22865149       6.79774959       0.00000000 NULL
P        5.41656594       0.26828344      12.04419224       0.00000000 NULL
P        2.89485991       4.55674249       1.55130694       0.00000000 NULL
P        2.97663362       1.40417674       9.33614312       0.00000000 NULL
P        3.13111362       1.87575247      14.58258577       0.00000000 NULL
P        2.64547706       1.77374821       4.08970047       0.00000000 NULL
P        3.34259994       2.96902236      11.93361740       0.00000000 NULL
P        1.59293439       1.41026579       1.44073209       0.00000000 NULL
P        3.81768996       0.67438926       6.68717475       0.00000000 NULL
18
Lattice="5.837224785965038 -4.88687232701107e-16 0.0 -2.9186123929825185 5.055184952245905 0.0 0.0 0.0 15.723919827978163" Properties=species:S:1:pos:R:3:initial_magmoms:R:1:castep_labels:S:1 n_minim_iter=7 pbc="T T T"
P       -2.40868482       4.61547189      15.23103123       0.00000000 NULL
P        0.12583861       0.66146727       4.74841801       0.00000000 NULL
P        2.28284534       4.83343125       9.98972462       0.00000000 NULL
P        3.43093465       2.47060873       1.90556055       0.00000000 NULL
P        1.98214725       1.73597271       7.14686716       0.00000000 NULL
P        3.34275441       0.84860402      12.38817377       0.00000000 NULL
P        1.71240968       2.68202262      10.55576784       0.00000000 NULL
P        2.65831993       0.14197948       0.07315463       0.00000000 NULL
P        4.38510669       2.23118336       5.31446124       0.00000000 NULL
P        0.44543682       0.22214991       6.79781322       0.00000000 NULL
P        5.42211862       0.27468515      12.03911983       0.00000000 NULL
P        2.88828087       4.55835040       1.55650661       0.00000000 NULL
P        2.97627937       1.40293641       9.32020111       0.00000000 NULL
P        3.13410624       1.87606584      14.56150772       0.00000000 NULL
P        2.64545069       1.77618321       4.07889450       0.00000000 NULL
P        3.34878185       2.97194494      11.92365581       0.00000000 NULL
P        1.58905375       1.41415819       1.44104259       0.00000000 NULL
P        3.81800070       0.66908233       6.68234920       0.00000000 NULL
18
Lattice="5.810919788901395 4.571197305032643e-16 0.0 -2.905459894450698 5.032404156542314 0.0 0.0 0.0 15.618023185810392" Properties=species:S:1:pos:R:3:initial_magmoms:R:1:castep_labels:S:1 n_minim_iter=8 pbc="T T T"
P       -2.39564740       4.59555769      15.12503864       0.00000000 NULL
P        0.12341360       0.65993430       4.71302318       0.00000000 NULL
P        2.27223293       4.80931682       9.91903091       0.00000000 NULL
P        3.41959102       2.45784530       1.89858760       0.00000000 NULL
P        1.97256751       1.73253055       7.10459533       0.00000000 NULL
P        3.32422027       0.84202881      12.31060306       0.00000000 NULL
P        1.70129959       2.67263302      10.48210453       0.00000000 NULL
P        2.64570162       0.13705266       0.07008907       0.00000000 NULL
P        4.36937761       2.22271898       5.27609680       0.00000000 NULL
P        0.44550565       0.21738143       6.75563978       0.00000000 NULL
P        5.39990883       0.27712900      11.96164751       0.00000000 NULL
P        2.87096433       4.53789423       1.54963205       0.00000000 NULL
P        2.96188922       1.39573322       9.25317596       0.00000000 NULL
P        3.12123447       1.86720520      14.45918369       0.00000000 NULL
P        2.63325513       1.76946624       4.04716823       0.00000000 NULL
P        3.33640082       2.95959872      11.84412859       0.00000000 NULL
P        1.57963141       1.40960901       1.43211314       0.00000000 NULL
P        3.80034658       0.66319693       6.63812086       0.00000000 NULL
18
Lattice="5.817416807881655 -3.1197478681752474e-17 0.0 -2.9087084039408273 5.038030740028089 0.0 0.0 0.0 15.646437935712177" Properties=species:S:1:pos:R:3:initial_magmoms:R:1:castep_labels:S:1 n_minim_iter=9 pbc="T T T"
P       -2.39727327       4.60119472      15.15033069       0.00000000 NULL
P        0.12259323       0.66133433       4.71937207       0.00000000 NULL
P        2.27467917       4.81353293       9.93485138       0.00000000 NULL
P        3.42600162       2.45964621       1.90530422       0.00000000 NULL
P        1.97429960       1.73718183       7.12078353       0.00000000 NULL
P        3.32582312       0.84120320      12.33626284       0.00000000 NULL
P        1.70088070       2.67708148      10.49978426       0.00000000 NULL
P        2.64855559       0.13446566       0.06882564       0.00000000 NULL
P        4.37668804       2.22648410       5.28430495       0.00000000 NULL
P        0.44709715       0.21523980       6.77019319       0.00000000 NULL
P        5.40746481       0.27957810      11.98567250       0.00000000 NULL
P        2.87156238       4.54321335       1.55471388       0.00000000 NULL
P        2.96479757       1.39666247       9.26754815       0.00000000 NULL
P        3.12547255       1.86925929      14.48302746       0.00000000 NULL
P        2.63585421       1.77210949       4.05206884       0.00000000 NULL
P        3.34182025       2.96372753      11.86623176       0.00000000 NULL
P        1.57984306       1.41223797       1.43527313       0.00000000 NULL
P        3.80446103       0.66206575       6.65075244       0.00000000 NULL
18
Lattice="5.810696125291503 1.0985275971230877e-15 0.0 -2.905348062645752 5.032210458174244 0.0 0.0 0.0 15.6221537253682" Properties=species:S:1:pos:R:3:initial_magmoms:R:1:castep_labels:S:1 n_minim_iter=10 pbc="T T T"
P       -2.39352889       4.59634679      15.12499300       0.00000000 NULL
P        0.12155914       0.66118074       4.71022385       0.00000000 NULL
P        2.27196888       4.80689389       9.91760843       0.00000000 NULL
P        3.42432621       2.45593082       1.90541073       0.00000000 NULL
P        1.97163425       1.73758858       7.11279531       0.00000000 NULL
P        3.32008286       0.83869156      12.32017988       0.00000000 NULL
P        1.69699449       2.67537392      10.48222890       0.00000000 NULL
P        2.64525681       0.13195388       0.06745975       0.00000000 NULL
P        4.37379202       2.22488316       5.27484433       0.00000000 NULL
P        0.44759235       0.21290773       6.76158381       0.00000000 NULL
P        5.40251616       0.28117299      11.96896839       0.00000000 NULL
P        2.86593481       4.53813025       1.55419924       0.00000000 NULL
P        2.96090393       1.39453173       9.25087186       0.00000000 NULL
P        3.12254397       1.86695266      14.45825643       0.00000000 NULL
P        2.63259542       1.77072657       4.04348728       0.00000000 NULL
P        3.33936320       2.96095873      11.84822764       0.00000000 NULL
P        1.57674876       1.41149450       1.43345849       0.00000000 NULL
P        3.79993136       0.65975773       6.64084307       0.00000000 NULL
18
Lattice="5.796354477626281 5.638890814076286e-16 0.0 -2.898177238813141 5.019790226964036 0.0 0.0 0.0 15.57843054124811" Properties=species:S:1:pos:R:3:initial_magmoms:R:1:castep_labels:S:1 n_minim_iter=11 pbc="T T T"
P       -2.38450963       4.58659306      15.07641711       0.00000000 NULL
P        0.11832565       0.66144828       4.69079675       0.00000000 NULL
P        2.26618311       4.79153961       9.88360693       0.00000000 NULL
P        3.42379481       2.44687824       1.91048219       0.00000000 NULL
P        1.96539807       1.74165466       7.10329237       0.00000000 NULL
P        3.30533797       0.83125783      12.29610255       0.00000000 NULL
P        1.68609949       2.67343592      10.44871323       0.00000000 NULL
P        2.63804103       0.12348753       0.06309287       0.00000000 NULL
P        4.37039033       2.22286728       5.25590305       0.00000000 NULL
P        0.44984718       0.20516537       6.74912480       0.00000000 NULL
P        5.39375217       0.28699690      11.94193498       0.00000000 NULL
P        2.85093150       4.52762846       1.55631462       0.00000000 NULL
P        2.95205514       1.38926342       9.21712456       0.00000000 NULL
P        3.11718920       1.86192354      14.40993474       0.00000000 NULL
P        2.62528650       1.76860377       4.02431438       0.00000000 NULL
P        3.33587943       2.95600219      11.81647557       0.00000000 NULL
P        1.56844148       1.41095574       1.43085521       0.00000000 NULL
P        3.79020993       0.65283280       6.62366539       0.00000000 NULL
18
Lattice="5.635215463201981 -9.663809893121352e-17 0.0 -2.8176077316009907 4.880239746931807 0.0 0.0 0.0 15.19182549010327" Properties=species:S:1:pos:R:3:initial_magmoms:R:1:castep_labels:S:1 n_minim_iter=12 pbc="T T T"
P       -2.29797183       4.47197345      14.65494512       0.00000000 NULL
P        0.09375075       0.65415152       4.52706146       0.00000000 NULL
P        2.20422024       4.63435501       9.59100329       0.00000000 NULL
P        3.39437541       2.35441611       1.94786981       0.00000000 NULL
P        1.89904331       1.76240777       7.01181164       0.00000000 NULL
P        3.15940362       0.76341635      12.07575347       0.00000000 NULL
P        1.58521772       2.63613902      10.15838042       0.00000000 NULL
P        2.55964296       0.05476979       0.03049676       0.00000000 NULL
P        4.30796167       2.18933142       5.09443859       0.00000000 NULL
P        0.46268983       0.14039077       6.63071916       0.00000000 NULL
P        5.28228830       0.33050625      11.69466099       0.00000000 NULL
P        2.70784423       4.40934322       1.56677733       0.00000000 NULL
P        2.85701491       1.33551722       8.92323257       0.00000000 NULL
P        3.05011589       1.80648937      13.98717440       0.00000000 NULL
P        2.54569155       1.73823365       3.85929074       0.00000000 NULL
P        3.27823887       2.89374549      11.53285410       0.00000000 NULL
P        1.49003864       1.39216589       1.40497044       0.00000000 NULL
P        3.68454484       0.59432886       6.46891227       0.00000000 NULL
18
Lattice="5.876137941615847 1.2363193249865638e-15 0.0 -2.9380689708079246 5.0888847335809215 0.0 0.0 0.0 16.79131378489516" Properties=species:S:1:pos:R:3:initial_magmoms:R:1:castep_labels:S:1 n_minim_iter=13 pbc="T T T"
P       -2.40759010       4.66302681      16.19292360       0.00000000 NULL
P        0.10356405       0.67233765       4.99871441       0.00000000 NULL
P        2.30402516       4.84240552      10.59581901       0.00000000 NULL
P        3.55600702       2.45412378       2.15708776       0.00000000 NULL
P        1.97280060       1.85253103       7.75419236       0.00000000 NULL
P        3.28539841       0.78223043      13.35129695       0.00000000 NULL
P        1.64135627       2.74660377      11.23086923       0.00000000 NULL
P        2.67683088       0.04815485       0.03666004       0.00000000 NULL
P        4.49601888       2.29412663       5.63376464       0.00000000 NULL
P        0.48261418       0.13564823       7.33192709       0.00000000 NULL
P        5.51735575       0.35013253      12.92903168       0.00000000 NULL
P        2.81423610       4.60310448       1.73482249       0.00000000 NULL
P        2.98136688       1.38688508       9.85921327       0.00000000 NULL
P        3.18437649       1.88849742      15.45631786       0.00000000 NULL
P        2.64846266       1.81350274       4.26210867       0.00000000 NULL
P        3.41929729       3.02402143      12.74542709       0.00000000 NULL
P        1.54760962       1.44918811       1.55121790       0.00000000 NULL
P        3.84729912       0.61567570       7.14832250       0.00000000 NULL
18
Lattice="5.590854821338771 5.070844684252947e-16 0.0 -2.7954274106693857 4.8418223041500825 0.0 0.0 0.0 15.666639088599757" Properties=species:S:1:pos:R:3:initial_magmoms:R:1:castep_labels:S:1 n_minim_iter=14 pbc="T T T"
P       -2.29005473       4.43656491      15.11227884       0.00000000 NULL
P        0.09827658       0.64029476       4.66785278       0.00000000 NULL
P        2.19177731       4.60678542       9.89006581       0.00000000 NULL
P        3.38145820       2.33516608       2.01501741       0.00000000 NULL
P        1.87781230       1.76084615       7.23723043       0.00000000 NULL
P        3.12701090       0.74581056      12.45944346       0.00000000 NULL
P        1.56542419       2.61443087      10.47812960       0.00000000 NULL
P        2.54397890       0.04848217       0.03370355       0.00000000 NULL
P        4.27687831       2.17890975       5.25591658       0.00000000 NULL
P        0.45906637       0.13078871       6.83797807       0.00000000 NULL
P        5.24805501       0.33216927      12.06019110       0.00000000 NULL
P        2.67916001       4.37886481       1.61576504       0.00000000 NULL
P        2.83452508       1.32061659       9.19736741       0.00000000 NULL
P        3.02990449       1.79446292      14.41958044       0.00000000 NULL
P        2.52185183       1.72674328       3.97515438       0.00000000 NULL
P        3.25025710       2.87599386      11.89022464       0.00000000 NULL
P        1.47504225       1.37680878       1.44579858       0.00000000 NULL
P        3.66098204       0.58902015       6.66801161       0.00000000 NULL
18
Lattice="5.594036734726253 9.829502153651727e-16 0.0 -2.797018367363127 4.844577921976283 0.0 0.0 0.0 15.545710841894854" Properties=species:S:1:pos:R:3:initial_magmoms:R:1:castep_labels:S:1 n_minim_iter=15 pbc="T T T"
P       -2.29322769       4.43891896      14.99608441       0.00000000 NULL
P        0.09941535       0.63912549       4.63227719       0.00000000 NULL
P        2.19381150       4.61111187       9.81418080       0.00000000 NULL
P        3.38556072       2.33605883       2.00091583       0.00000000 NULL
P        1.87816980       1.76395266       7.18281944       0.00000000 NULL
P        3.12732374       0.74456691      12.36472305       0.00000000 NULL
P        1.56531321       2.61548025      10.39723642       0.00000000 NULL
P        2.54630751       0.04786136       0.03342920       0.00000000 NULL
P        4.27943355       2.18123679       5.21533281       0.00000000 NULL
P        0.45918529       0.12945069       6.78465542       0.00000000 NULL
P        5.25233623       0.33294126      11.96655903       0.00000000 NULL
P        2.67953275       4.38218645       1.60275181       0.00000000 NULL
P        2.83608843       1.32076738       9.12560628       0.00000000 NULL
P        3.03217413       1.79574142      14.30750989       0.00000000 NULL
P        2.52279170       1.72806960       3.94370266       0.00000000 NULL
P        3.25175104       2.87827181      11.79786285       0.00000000 NULL
P        1.47550443       1.37696358       1.43405562       0.00000000 NULL
P        3.66379880       0.58934301       6.61595924       0.00000000 NULL
