28
Lattice="5.9203973448313505 0.0 0.0 0.0 9.59714052598546 0.0 0.0 0.0 12.219437925077306" Properties=species:S:1:pos:R:3:initial_magmoms:R:1:castep_labels:S:1:forces:R:3 n_minim_iter=1 energy=-151.007239858401 stress="-0.0002687330933322877 0.0 -0.0 0.0 1.0312621654299388e-05 0.0 -0.0 0.0 -0.0006764129200431036" free_energy=-151.007239858401 pbc="T T T"
P        4.56931867       2.49312078       7.23107514       0.00000000 NULL      -0.00828800       0.00287600      -0.00992100
P        4.56931867       7.10401975       4.98836279       0.00000000 NULL      -0.00828800      -0.00287600       0.00992100
P        1.35107868       7.10401975       7.23107514       0.00000000 NULL       0.00828800      -0.00287600      -0.00992100
P        1.35107868       2.49312078       4.98836279       0.00000000 NULL       0.00828800       0.00287600       0.00992100
P        1.14952889       8.48193086      -0.12855162       0.00000000 NULL       0.01175200      -0.00826800       0.04243200
P        1.14952889       1.11520966      12.34798954       0.00000000 NULL       0.01175200       0.00826800      -0.04243200
P        4.77086845       1.11520966      -0.12855162       0.00000000 NULL      -0.01175200       0.00826800       0.04243200
P        4.77086845       8.48193086      12.34798954       0.00000000 NULL      -0.01175200      -0.00826800      -0.04243200
P       -0.08445605       2.23042403       3.28301305       0.00000000 NULL       0.00323000       0.00592100      -0.02253000
P       -0.08445605       7.36671650       8.93642487       0.00000000 NULL       0.00323000      -0.00592100       0.02253000
P        6.00485340       7.36671650       3.28301305       0.00000000 NULL      -0.00323000      -0.00592100      -0.02253000
P        6.00485340       2.23042403       8.93642487       0.00000000 NULL      -0.00323000       0.00592100       0.02253000
P        1.34116313       0.73436964       2.40969633       0.00000000 NULL       0.00958500      -0.01410400      -0.00597500
P        1.34116313       8.86277089       9.80974159       0.00000000 NULL       0.00958500       0.01410400       0.00597500
P        4.57923421       8.86277089       2.40969633       0.00000000 NULL      -0.00958500       0.01410400      -0.00597500
P        4.57923421       0.73436964       9.80974159       0.00000000 NULL      -0.00958500      -0.01410400       0.00597500
P        4.76153020       4.86891417       4.99026979       0.00000000 NULL      -0.00229700       0.01552000      -0.00447300
P        4.76153020       4.72822636       7.22916814       0.00000000 NULL      -0.00229700      -0.01552000       0.00447300
P        1.15886715       4.72822636       4.99026979       0.00000000 NULL       0.00229700      -0.01552000      -0.00447300
P        1.15886715       4.86891417       7.22916814       0.00000000 NULL       0.00229700       0.01552000       0.00447300
P        1.61548198       0.90177515       8.04293820       0.00000000 NULL       0.02710600       0.00130900      -0.01773500
P        1.61548198       8.69536537       4.17649972       0.00000000 NULL       0.02710600      -0.00130900       0.01773500
P        4.30491537       8.69536537       8.04293820       0.00000000 NULL      -0.02710600      -0.00130900      -0.01773500
P        4.30491537       0.90177515       4.17649972       0.00000000 NULL      -0.02710600       0.00130900       0.01773500
P        2.79094204       2.25826348       3.23001405       0.00000000 NULL       0.03033600      -0.01356200      -0.00950600
P        2.79094204       7.33887705       8.98942387       0.00000000 NULL       0.03033600       0.01356200       0.00950600
P        3.12945530       7.33887705       3.23001405       0.00000000 NULL      -0.03033600       0.01356200      -0.00950600
P        3.12945530       2.25826348       8.98942387       0.00000000 NULL      -0.03033600      -0.01356200       0.00950600
28
Lattice="5.922441237065827 0.0 0.0 0.0 9.59701340446023 0.0 0.0 0.0 12.230058861983066" Properties=species:S:1:pos:R:3:initial_magmoms:R:1:castep_labels:S:1:forces:R:3 n_minim_iter=2 energy=-151.007493896912 stress="0.00021807464530743147 0.0 -0.0 0.0 0.0002485150404173018 0.0 -0.0 0.0 -2.2139776972632563e-05" free_energy=-151.007493896912 pbc="T T T"
P        4.57088079       2.49309307       7.23734190       0.00000000 NULL      -0.00733100       0.00220100       0.00777300
P        4.57088079       7.10392033       4.99271696       0.00000000 NULL      -0.00733100      -0.00220100      -0.00777300
P        1.35156045       7.10392033       7.23734190       0.00000000 NULL       0.00733100      -0.00220100       0.00777300
P        1.35156045       2.49309307       4.99271696       0.00000000 NULL       0.00733100       0.00220100      -0.00777300
P        1.14994749       8.48180322      -0.12858479       0.00000000 NULL       0.00632200      -0.00417000       0.03608700
P        1.14994749       1.11521019      12.35864365       0.00000000 NULL       0.00632200       0.00417000      -0.03608700
P        4.77249375       1.11521019      -0.12858479       0.00000000 NULL      -0.00632200       0.00417000       0.03608700
P        4.77249375       8.48180322      12.35864365       0.00000000 NULL      -0.00632200      -0.00417000      -0.03608700
P       -0.08447923       2.23040544       3.28582488       0.00000000 NULL       0.00878500       0.00021300      -0.01276500
P       -0.08447923       7.36660797       8.94423398       0.00000000 NULL       0.00878500      -0.00021300       0.01276500
P        6.00692047       7.36660797       3.28582488       0.00000000 NULL      -0.00878500      -0.00021300      -0.01276500
P        6.00692047       2.23040544       8.94423398       0.00000000 NULL      -0.00878500       0.00021300       0.01276500
P        1.34164388       0.73433382       2.41177974       0.00000000 NULL       0.01025000      -0.01089200      -0.00417900
P        1.34164388       8.86267959       9.81827912       0.00000000 NULL       0.01025000       0.01089200       0.00417900
P        4.58079736       8.86267959       2.41177974       0.00000000 NULL      -0.01025000       0.01089200      -0.00417900
P        4.58079736       0.73433382       9.81827912       0.00000000 NULL      -0.01025000      -0.01089200       0.00417900
P        4.76316977       4.86887839       4.99459897       0.00000000 NULL       0.00296500       0.01430100       0.01183300
P        4.76316977       4.72813502       7.23545989       0.00000000 NULL       0.00296500      -0.01430100      -0.01183300
P        1.15927147       4.72813502       4.99459897       0.00000000 NULL      -0.00296500      -0.01430100       0.01183300
P        1.15927147       4.86887839       7.23545989       0.00000000 NULL      -0.00296500       0.01430100      -0.01183300
P        1.61608985       0.90176563       8.04989616       0.00000000 NULL       0.02523400       0.00513300      -0.00627800
P        1.61608985       8.69524778       4.18016271       0.00000000 NULL       0.02523400      -0.00513300       0.00627800
P        4.30635139       8.69524778       8.04989616       0.00000000 NULL      -0.02523400      -0.00513300      -0.00627800
P        4.30635139       0.90176563       4.18016271       0.00000000 NULL      -0.02523400       0.00513300       0.00627800
P        2.79196170       2.25820848       3.23280393       0.00000000 NULL       0.02513500      -0.01857100      -0.00092300
P        2.79196170       7.33880493       8.99725494       0.00000000 NULL       0.02513500       0.01857100       0.00092300
P        3.13047954       7.33880493       3.23280393       0.00000000 NULL      -0.02513500       0.01857100      -0.00092300
P        3.13047954       2.25820848       8.99725494       0.00000000 NULL      -0.02513500      -0.01857100       0.00092300
28
Lattice="5.920714680667206 0.0 0.0 0.0 9.592304596656483 0.0 0.0 0.0 12.234731028846001" Properties=species:S:1:pos:R:3:initial_magmoms:R:1:castep_labels:S:1:forces:R:3 n_minim_iter=3 energy=-151.007591019852 stress="-2.604875758337758e-05 0.0 -0.0 0.0 -8.253570427661348e-05 0.0 -0.0 0.0 6.566877395190712e-05" free_energy=-151.007591019852 pbc="T T T"
P        4.56952166       2.49187809       7.24012147       0.00000000 NULL      -0.00743300      -0.00538000       0.01126000
P        4.56952166       7.10042651       4.99460956       0.00000000 NULL      -0.00743300       0.00538000      -0.01126000
P        1.35119302       7.10042651       7.24012147       0.00000000 NULL       0.00743300       0.00538000       0.01126000
P        1.35119302       2.49187809       4.99460956       0.00000000 NULL       0.00743300      -0.00538000      -0.01126000
P        1.14963850       8.47762391      -0.12850161       0.00000000 NULL       0.00977000      -0.01373200       0.03218200
P        1.14963850       1.11468068      12.36323264       0.00000000 NULL       0.00977000       0.01373200      -0.03218200
P        4.77107618       1.11468068      -0.12850161       0.00000000 NULL      -0.00977000       0.01373200       0.03218200
P        4.77107618       8.47762391      12.36323264       0.00000000 NULL      -0.00977000      -0.01373200      -0.03218200
P       -0.08442757       2.22931595       3.28702791       0.00000000 NULL       0.01018600       0.00646500      -0.01076800
P       -0.08442757       7.36298865       8.94770312       0.00000000 NULL       0.01018600      -0.00646500       0.01076800
P        6.00514225       7.36298865       3.28702791       0.00000000 NULL      -0.01018600      -0.00646500      -0.01076800
P        6.00514225       2.22931595       8.94770312       0.00000000 NULL      -0.01018600       0.00646500       0.01076800
P        1.34128849       0.73393274       2.41268501       0.00000000 NULL       0.01070900      -0.01573300      -0.00761600
P        1.34128849       8.85837185       9.82204602       0.00000000 NULL       0.01070900       0.01573300       0.00761600
P        4.57942619       8.85837185       2.41268501       0.00000000 NULL      -0.01070900       0.01573300      -0.00761600
P        4.57942619       0.73393274       9.82204602       0.00000000 NULL      -0.01070900      -0.01573300       0.00761600
P        4.76178785       4.86654082       4.99653712       0.00000000 NULL       0.00042100       0.00693100       0.01722600
P        4.76178785       4.72576377       7.23819390       0.00000000 NULL       0.00042100      -0.00693000      -0.01722600
P        1.15892683       4.72576377       4.99653712       0.00000000 NULL      -0.00042100      -0.00693000       0.01722600
P        1.15892683       4.86654082       7.23819390       0.00000000 NULL      -0.00042100       0.00693100      -0.01722600
P        1.61570923       0.90133854       8.05294091       0.00000000 NULL       0.02375000      -0.00072900      -0.00685400
P        1.61570923       8.69096606       4.18179012       0.00000000 NULL       0.02375000       0.00072900       0.00685400
P        4.30500545       8.69096606       8.05294091       0.00000000 NULL      -0.02375000       0.00072900      -0.00685400
P        4.30500545       0.90133854       4.18179012       0.00000000 NULL      -0.02375000      -0.00072900       0.00685400
P        2.79124033       2.25703852       3.23402947       0.00000000 NULL       0.02446300      -0.01106900       0.00031000
P        2.79124033       7.33526607       9.00070156       0.00000000 NULL       0.02446300       0.01106900      -0.00031000
P        3.12947436       7.33526607       3.23402947       0.00000000 NULL      -0.02446300       0.01106900       0.00031000
P        3.12947436       2.25703852       9.00070156       0.00000000 NULL      -0.02446300      -0.01106900      -0.00031000
28
Lattice="5.917567804343551 0.0 0.0 0.0 9.595660730676899 0.0 0.0 0.0 12.235762605119762" Properties=species:S:1:pos:R:3:initial_magmoms:R:1:castep_labels:S:1:forces:R:3 n_minim_iter=4 energy=-151.00820257268 stress="-0.00020669761811200994 0.0 0.0 0.0 0.00018438849562237724 -0.0 0.0 -0.0 9.860632140417661e-05" free_energy=-151.00820257268 pbc="T T T"
P        4.56650495       2.49249533       7.24145323       0.00000000 NULL      -0.00270600      -0.00319000       0.00649700
P        4.56650495       7.10316540       4.99430938       0.00000000 NULL      -0.00270600       0.00319000      -0.00649700
P        1.35106286       7.10316540       7.24145323       0.00000000 NULL       0.00270600       0.00319000       0.00649700
P        1.35106286       2.49249533       4.99430938       0.00000000 NULL       0.00270600      -0.00319000      -0.00649700
P        1.14974955       8.47969648      -0.12585308       0.00000000 NULL       0.00164600       0.00561500       0.00891300
P        1.14974955       1.11596425      12.36161569       0.00000000 NULL       0.00164600      -0.00561500      -0.00891300
P        4.76781825       1.11596425      -0.12585308       0.00000000 NULL      -0.00164600      -0.00561500       0.00891300
P        4.76781825       8.47969648      12.36161569       0.00000000 NULL      -0.00164600       0.00561500      -0.00891300
P       -0.08363990       2.23049794       3.28636061       0.00000000 NULL       0.00562300      -0.00981100      -0.00293900
P       -0.08363990       7.36516279       8.94940199       0.00000000 NULL       0.00562300       0.00981100       0.00293900
P        6.00120770       7.36516279       3.28636061       0.00000000 NULL      -0.00562300       0.00981100      -0.00293900
P        6.00120770       2.23049794       8.94940199       0.00000000 NULL      -0.00562300      -0.00981100       0.00293900
P        1.34140538       0.73303996       2.41235296       0.00000000 NULL       0.00720000      -0.00093200      -0.00821200
P        1.34140538       8.86262077       9.82340965       0.00000000 NULL       0.00720000       0.00093200       0.00821200
P        4.57616242       8.86262077       2.41235296       0.00000000 NULL      -0.00720000       0.00093200      -0.00821200
P        4.57616242       0.73303996       9.82340965       0.00000000 NULL      -0.00720000      -0.00093200       0.00821200
P        4.75931845       4.86895632       4.99811628       0.00000000 NULL      -0.01057000       0.00353500      -0.00424500
P        4.75931845       4.72670442       7.23764632       0.00000000 NULL      -0.01057000      -0.00353500       0.00424600
P        1.15824935       4.72670442       4.99811628       0.00000000 NULL       0.01057000      -0.00353500      -0.00424500
P        1.15824935       4.86895632       7.23764632       0.00000000 NULL       0.01057000       0.00353500       0.00424600
P        1.61676263       0.90170470       8.05303203       0.00000000 NULL      -0.00875000      -0.00356600      -0.00246800
P        1.61676263       8.69395603       4.18273057       0.00000000 NULL      -0.00875000       0.00356600       0.00246800
P        4.30080517       8.69395603       8.05303203       0.00000000 NULL       0.00875000       0.00356600      -0.00246800
P        4.30080517       0.90170470       4.18273057       0.00000000 NULL       0.00875000      -0.00356600       0.00246800
P        2.79172454       2.25681889       3.23425526       0.00000000 NULL       0.00328700      -0.00224000      -0.00901100
P        2.79172454       7.33884184       9.00150735       0.00000000 NULL       0.00328800       0.00224000       0.00901100
P        3.12584326       7.33884184       3.23425526       0.00000000 NULL      -0.00328700       0.00224000      -0.00901100
P        3.12584326       2.25681889       9.00150735       0.00000000 NULL      -0.00328700      -0.00224000       0.00901100
28
Lattice="5.919962602523835 0.0 0.0 0.0 9.592262923705295 0.0 0.0 0.0 12.233352161988611" Properties=species:S:1:pos:R:3:initial_magmoms:R:1:castep_labels:S:1:forces:R:3 n_minim_iter=5 energy=-151.008275436299 stress="1.4467067888799367e-05 -0.0 -0.0 -0.0 -1.8425718306132527e-06 -0.0 -0.0 -0.0 2.1736589564265715e-06" free_energy=-151.008275436299 pbc="T T T"
P        4.56827631       2.49157303       7.24013037       0.00000000 NULL      -0.00232200      -0.00939700       0.00649000
P        4.56827631       7.10068989       4.99322179       0.00000000 NULL      -0.00232200       0.00939700      -0.00649000
P        1.35168629       7.10068989       7.24013037       0.00000000 NULL       0.00232200       0.00939700       0.00649000
P        1.35168629       2.49157303       4.99322179       0.00000000 NULL       0.00232200      -0.00939700      -0.00649000
P        1.15030389       8.47660780      -0.12549221       0.00000000 NULL      -0.00351900       0.00108800       0.00692300
P        1.15030389       1.11565512      12.35884437       0.00000000 NULL      -0.00351900      -0.00108800      -0.00692300
P        4.76965871       1.11565512      -0.12549221       0.00000000 NULL       0.00351900      -0.00108800       0.00692300
P        4.76965871       8.47660780      12.35884437       0.00000000 NULL       0.00351900       0.00108800      -0.00692300
P       -0.08357007       2.22972399       3.28559439       0.00000000 NULL       0.00512000      -0.00969300      -0.00183500
P       -0.08357007       7.36253894       8.94775777       0.00000000 NULL       0.00512000       0.00969300       0.00183500
P        6.00353268       7.36253894       3.28559439       0.00000000 NULL      -0.00512000       0.00969300      -0.00183500
P        6.00353268       2.22972399       8.94775777       0.00000000 NULL      -0.00512000      -0.00969300       0.00183500
P        1.34206706       0.73264421       2.41178961       0.00000000 NULL       0.00756600       0.00145700      -0.00716400
P        1.34206706       8.85961871       9.82156255       0.00000000 NULL       0.00756600      -0.00145700       0.00716400
P        4.57789554       8.85961871       2.41178961       0.00000000 NULL      -0.00756600      -0.00145700      -0.00716400
P        4.57789554       0.73264421       9.82156255       0.00000000 NULL      -0.00756600       0.00145700       0.00716400
P        4.76121808       4.86732571       4.99725197       0.00000000 NULL      -0.00658600      -0.00218000      -0.00874800
P        4.76121808       4.72493721       7.23610020       0.00000000 NULL      -0.00658600       0.00218000       0.00874800
P        1.15874452       4.72493721       4.99725197       0.00000000 NULL       0.00658600       0.00218000      -0.00874800
P        1.15874452       4.86732571       7.23610020       0.00000000 NULL       0.00658600      -0.00218000       0.00874800
P        1.61761076       0.90137979       8.05136944       0.00000000 NULL      -0.01298700      -0.00244300      -0.00315400
P        1.61761076       8.69088314       4.18198272       0.00000000 NULL      -0.01298700       0.00244300       0.00315400
P        4.30235184       8.69088314       8.05136944       0.00000000 NULL       0.01298700       0.00244300      -0.00315400
P        4.30235184       0.90137979       4.18198272       0.00000000 NULL       0.01298700      -0.00244300       0.00315400
P        2.79309271       2.25589620       3.23358397       0.00000000 NULL       0.00076200       0.00132900      -0.01045900
P        2.79309271       7.33636673       8.99976819       0.00000000 NULL       0.00076200      -0.00132900       0.01045900
P        3.12686989       7.33636673       3.23358397       0.00000000 NULL      -0.00076200      -0.00132900      -0.01045900
P        3.12686989       2.25589620       8.99976819       0.00000000 NULL      -0.00076200       0.00132900       0.01045900
28
Lattice="5.919867834368721 0.0 0.0 0.0 9.59090270843387 0.0 0.0 0.0 12.230704937640347" Properties=species:S:1:pos:R:3:initial_magmoms:R:1:castep_labels:S:1:forces:R:3 n_minim_iter=6 energy=-151.008541621954 stress="-8.352278759543643e-07 0.0 -0.0 0.0 8.424281162643156e-06 -0.0 -0.0 -0.0 5.169772542545116e-06" free_energy=-151.008541621954 pbc="T T T"
P        4.56757731       2.48966825       7.23988435       0.00000000 NULL      -0.00713600       0.00730900       0.00041600
P        4.56757731       7.10123446       4.99082059       0.00000000 NULL      -0.00713600      -0.00730900      -0.00041600
P        1.35229053       7.10123446       7.23988435       0.00000000 NULL       0.00713600      -0.00730900       0.00041600
P        1.35229053       2.48966825       4.99082059       0.00000000 NULL       0.00713600       0.00730900      -0.00041600
P        1.15009510       8.47520651      -0.12319773       0.00000000 NULL      -0.00205600      -0.00459500      -0.00708100
P        1.15009510       1.11569620      12.35390267       0.00000000 NULL      -0.00205600       0.00459500       0.00708100
P        4.76977274       1.11569620      -0.12319773       0.00000000 NULL       0.00205600       0.00459500      -0.00708100
P        4.76977274       8.47520651      12.35390267       0.00000000 NULL       0.00205600      -0.00459500       0.00708100
P       -0.08244023       2.22807010       3.28416500       0.00000000 NULL       0.00039900      -0.00506600      -0.00494300
P       -0.08244023       7.36283261       8.94653993       0.00000000 NULL       0.00039900       0.00506600       0.00494300
P        6.00230806       7.36283261       3.28416500       0.00000000 NULL      -0.00039900       0.00506600      -0.00494300
P        6.00230806       2.22807010       8.94653993       0.00000000 NULL      -0.00039900      -0.00506600       0.00494300
P        1.34359578       0.73224225       2.40988898       0.00000000 NULL       0.00686600      -0.00038800      -0.00323300
P        1.34359578       8.85866046       9.82081596       0.00000000 NULL       0.00686600       0.00038800       0.00323300
P        4.57627205       8.85866046       2.40988898       0.00000000 NULL      -0.00686600       0.00038800      -0.00323300
P        4.57627205       0.73224225       9.82081596       0.00000000 NULL      -0.00686600      -0.00038800       0.00323300
P        4.76009062       4.86663788       4.99531227       0.00000000 NULL       0.00786900       0.00308700       0.00570400
P        4.76009062       4.72426483       7.23539267       0.00000000 NULL       0.00786900      -0.00308700      -0.00570400
P        1.15977721       4.72426483       4.99531227       0.00000000 NULL      -0.00786900      -0.00308700       0.00570400
P        1.15977721       4.86663788       7.23539267       0.00000000 NULL      -0.00786900       0.00308700      -0.00570400
P        1.61640219       0.90086890       8.04886371       0.00000000 NULL      -0.00635900      -0.00199800       0.00883500
P        1.61640219       8.69003381       4.18184123       0.00000000 NULL      -0.00635900       0.00199800      -0.00883600
P        4.30346564       8.69003381       8.04886371       0.00000000 NULL       0.00635900       0.00199800       0.00883600
P        4.30346564       0.90086890       4.18184123       0.00000000 NULL       0.00635900      -0.00199800      -0.00883600
P        2.79404859       2.25533538       3.23121353       0.00000000 NULL       0.00621500       0.00006700      -0.00006000
P        2.79404859       7.33556732       8.99949141       0.00000000 NULL       0.00621500      -0.00006700       0.00006000
P        3.12581924       7.33556732       3.23121353       0.00000000 NULL      -0.00621500      -0.00006700      -0.00006000
P        3.12581924       2.25533538       8.99949141       0.00000000 NULL      -0.00621500       0.00006700       0.00006000
28
Lattice="5.9202832866398385 0.0 0.0 0.0 9.590195216356278 0.0 0.0 0.0 12.231829741378075" Properties=species:S:1:pos:R:3:initial_magmoms:R:1:castep_labels:S:1:forces:R:3 n_minim_iter=7 energy=-151.008737576181 stress="-7.199604879591524e-08 0.0 -0.0 0.0 5.774083113432402e-06 -0.0 -0.0 -0.0 3.585403230036579e-06" free_energy=-151.008737576181 pbc="T T T"
P        4.56616621       2.48960666       7.24157466       0.00000000 NULL      -0.00105800       0.00017600       0.00554500
P        4.56616621       7.10058855       4.99025508       0.00000000 NULL      -0.00105800      -0.00017600      -0.00554500
P        1.35411707       7.10058855       7.24157466       0.00000000 NULL       0.00105800      -0.00017600       0.00554500
P        1.35411707       2.48960666       4.99025508       0.00000000 NULL       0.00105800       0.00017600      -0.00554500
P        1.14965379       8.47358298      -0.12281578       0.00000000 NULL       0.00241600       0.00815300      -0.00257500
P        1.14965379       1.11661224      12.35464552       0.00000000 NULL       0.00241600      -0.00815300       0.00257500
P        4.77062949       1.11661224      -0.12281578       0.00000000 NULL      -0.00241600      -0.00815300      -0.00257500
P        4.77062949       8.47358298      12.35464552       0.00000000 NULL      -0.00241600       0.00815300       0.00257500
P       -0.08155368       2.22603007       3.28305065       0.00000000 NULL       0.01463100       0.00477800      -0.00160900
P       -0.08155368       7.36416515       8.94877909       0.00000000 NULL       0.01463100      -0.00477800       0.00160900
P        6.00183697       7.36416515       3.28305065       0.00000000 NULL      -0.01463100      -0.00477800      -0.00160900
P        6.00183697       2.22603007       8.94877909       0.00000000 NULL      -0.01463100       0.00477800       0.00160900
P        1.34605639       0.73190493       2.40851581       0.00000000 NULL       0.00343300       0.00419800       0.00296700
P        1.34605639       8.85829029       9.82331393       0.00000000 NULL       0.00343300      -0.00419800      -0.00296700
P        4.57422690       8.85829029       2.40851581       0.00000000 NULL      -0.00343300      -0.00419800       0.00296700
P        4.57422690       0.73190493       9.82331393       0.00000000 NULL      -0.00343300       0.00419800      -0.00296700
P        4.76105905       4.86679518       4.99611406       0.00000000 NULL      -0.00184900      -0.00665600      -0.00365500
P        4.76105905       4.72340004       7.23571568       0.00000000 NULL      -0.00184900       0.00665600       0.00365500
P        1.15922423       4.72340004       4.99611406       0.00000000 NULL       0.00184900       0.00665600      -0.00365500
P        1.15922423       4.86679518       7.23571568       0.00000000 NULL       0.00184900      -0.00665600       0.00365500
P        1.61448243       0.90015688       8.05060114       0.00000000 NULL       0.00334200      -0.00302700       0.00719100
P        1.61448243       8.69003834       4.18122860       0.00000000 NULL       0.00334200       0.00302700      -0.00719100
P        4.30580086       8.69003834       8.05060114       0.00000000 NULL      -0.00334200       0.00302700       0.00719100
P        4.30580086       0.90015688       4.18122860       0.00000000 NULL      -0.00334200      -0.00302700      -0.00719100
P        2.79607843       2.25503895       3.23024912       0.00000000 NULL       0.00366100       0.00173900       0.00687000
P        2.79607843       7.33515627       9.00158062       0.00000000 NULL       0.00366100      -0.00173900      -0.00687000
P        3.12420485       7.33515627       3.23024912       0.00000000 NULL      -0.00366000      -0.00173900       0.00687000
P        3.12420485       2.25503895       9.00158062       0.00000000 NULL      -0.00366000       0.00173900      -0.00687000
28
Lattice="5.920819953133677 0.0 0.0 0.0 9.588982202857904 0.0 0.0 0.0 12.237573117586775" Properties=species:S:1:pos:R:3:initial_magmoms:R:1:castep_labels:S:1:forces:R:3 n_minim_iter=8 energy=-151.008955960658 stress="2.158945115920738e-07 -0.0 0.0 -0.0 5.757186975788636e-07 -0.0 0.0 -0.0 1.4824756462655738e-06" free_energy=-151.008955960658 pbc="T T T"
P        4.56445381       2.48943430       7.24713675       0.00000000 NULL       0.00162600       0.00118600      -0.00246500
P        4.56445381       7.09954790       4.99043637       0.00000000 NULL       0.00162600      -0.00118600       0.00246500
P        1.35636614       7.09954790       7.24713675       0.00000000 NULL      -0.00162600      -0.00118600      -0.00246500
P        1.35636614       2.48943430       4.99043637       0.00000000 NULL      -0.00162600       0.00118600       0.00246500
P        1.14961647       8.47290776      -0.12292331       0.00000000 NULL       0.00594200      -0.00089500       0.00388900
P        1.14961647       1.11607445      12.36049643       0.00000000 NULL       0.00594200       0.00089500      -0.00388900
P        4.77120348       1.11607445      -0.12292331       0.00000000 NULL      -0.00594200       0.00089500       0.00388900
P        4.77120348       8.47290776      12.36049643       0.00000000 NULL      -0.00594200      -0.00089500      -0.00388900
P       -0.07783115       2.22455710       3.28270447       0.00000000 NULL      -0.00397300       0.00428200       0.00216000
P       -0.07783115       7.36442510       8.95486865       0.00000000 NULL      -0.00397300      -0.00428200      -0.00216000
P        5.99865111       7.36442510       3.28270447       0.00000000 NULL       0.00397300      -0.00428200       0.00216000
P        5.99865111       2.22455710       8.95486865       0.00000000 NULL       0.00397300       0.00428200      -0.00216000
P        1.34945984       0.73229043       2.40842539       0.00000000 NULL       0.00288900      -0.00277300       0.00038600
P        1.34945984       8.85669178       9.82914773       0.00000000 NULL       0.00288900       0.00277300      -0.00038600
P        4.57136011       8.85669178       2.40842539       0.00000000 NULL      -0.00288900       0.00277300       0.00038600
P        4.57136011       0.73229043       9.82914773       0.00000000 NULL      -0.00288900      -0.00277300      -0.00038600
P        4.76185081       4.86548516       4.99810804       0.00000000 NULL      -0.00561200      -0.00750400       0.00628700
P        4.76185081       4.72349705       7.23946507       0.00000000 NULL      -0.00561200       0.00750300      -0.00628700
P        1.15896914       4.72349705       4.99810804       0.00000000 NULL       0.00561200       0.00750300       0.00628700
P        1.15896914       4.86548516       7.23946507       0.00000000 NULL       0.00561200      -0.00750400      -0.00628700
P        1.61296451       0.89875256       8.05682617       0.00000000 NULL      -0.00794000       0.00391900       0.00191500
P        1.61296451       8.69022964       4.18074695       0.00000000 NULL      -0.00794000      -0.00391900      -0.00191500
P        4.30785544       8.69022964       8.05682617       0.00000000 NULL       0.00794000      -0.00391900       0.00191500
P        4.30785544       0.89875256       4.18074695       0.00000000 NULL       0.00794000       0.00391900      -0.00191500
P        2.79905282       2.25495950       3.23162928       0.00000000 NULL       0.00419300       0.00762700       0.00271800
P        2.79905282       7.33402271       9.00594383       0.00000000 NULL       0.00419300      -0.00762700      -0.00271800
P        3.12176713       7.33402271       3.23162928       0.00000000 NULL      -0.00419300      -0.00762700       0.00271800
P        3.12176713       2.25495950       9.00594383       0.00000000 NULL      -0.00419300       0.00762700      -0.00271800
28
Lattice="5.9201767919433 0.0 0.0 0.0 9.585748475560235 0.0 0.0 0.0 12.242518198103213" Properties=species:S:1:pos:R:3:initial_magmoms:R:1:castep_labels:S:1:forces:R:3 n_minim_iter=9 energy=-151.009068310281 stress="-1.2090599511673113e-06 -0.0 -0.0 -0.0 -2.5764491816541513e-06 0.0 -0.0 0.0 2.0294934894594152e-06" free_energy=-151.009068310281 pbc="T T T"
P        4.56309169       2.48883311       7.25082539       0.00000000 NULL      -0.00204700       0.00147500       0.00026200
P        4.56309169       7.09691537       4.99169281       0.00000000 NULL      -0.00204700      -0.00147500      -0.00026200
P        1.35708511       7.09691537       7.25082539       0.00000000 NULL       0.00204700      -0.00147500       0.00026200
P        1.35708511       2.48883311       4.99169281       0.00000000 NULL       0.00204700       0.00147500      -0.00026200
P        1.15023278       8.47014613      -0.12245097       0.00000000 NULL      -0.00079400      -0.00676100      -0.00078900
P        1.15023278       1.11560235      12.36496917       0.00000000 NULL      -0.00079400       0.00676100       0.00078900
P        4.76994401       1.11560235      -0.12245097       0.00000000 NULL       0.00079400       0.00676100      -0.00078900
P        4.76994401       8.47014613      12.36496917       0.00000000 NULL       0.00079400      -0.00676100       0.00078900
P       -0.07645620       2.22377389       3.28335506       0.00000000 NULL       0.00369000       0.00730500      -0.00269900
P       -0.07645620       7.36197459       8.95916314       0.00000000 NULL       0.00369000      -0.00730500       0.00269900
P        5.99663299       7.36197459       3.28335506       0.00000000 NULL      -0.00369000      -0.00730500      -0.00269900
P        5.99663299       2.22377389       8.95916314       0.00000000 NULL      -0.00369000       0.00730500       0.00269900
P        1.35139860       0.73191676       2.40882649       0.00000000 NULL       0.00331000       0.00529300      -0.00091000
P        1.35139860       8.85383171       9.83369170       0.00000000 NULL       0.00331000      -0.00529200       0.00091000
P        4.56877819       8.85383171       2.40882649       0.00000000 NULL      -0.00331000      -0.00529300      -0.00091000
P        4.56877819       0.73191676       9.83369170       0.00000000 NULL      -0.00331000       0.00529300       0.00091000
P        4.76073902       4.86245872       5.00079165       0.00000000 NULL      -0.00036200       0.00298400       0.00057400
P        4.76073902       4.72328976       7.24172655       0.00000000 NULL      -0.00036200      -0.00298400      -0.00057400
P        1.15943777       4.72328976       5.00079165       0.00000000 NULL       0.00036200      -0.00298400       0.00057400
P        1.15943777       4.86245872       7.24172655       0.00000000 NULL       0.00036200       0.00298400      -0.00057400
P        1.61083014       0.89833212       8.06159666       0.00000000 NULL      -0.00177700       0.00016500      -0.00646700
P        1.61083014       8.68741636       4.18092153       0.00000000 NULL      -0.00177700      -0.00016500       0.00646700
P        4.30934665       8.68741636       8.06159666       0.00000000 NULL       0.00177700      -0.00016500      -0.00646700
P        4.30934665       0.89833212       4.18092153       0.00000000 NULL       0.00177700       0.00016500       0.00646700
P        2.80072331       2.25535121       3.23322979       0.00000000 NULL      -0.00447700       0.00394400       0.00146200
P        2.80072331       7.33039726       9.00928840       0.00000000 NULL      -0.00447700      -0.00394400      -0.00146200
P        3.11945348       7.33039726       3.23322979       0.00000000 NULL       0.00447700      -0.00394400       0.00146300
P        3.11945348       2.25535121       9.00928840       0.00000000 NULL       0.00447700       0.00394400      -0.00146200
