12
Lattice="4.84275 2.7477520852072214e-16 2.2326280588862463e-16 1.3548481726022268 5.570556716495797 2.3472433786202894e-15 0.2675571382539478 2.868087784008052 9.941034032865653" Properties=species:S:1:pos:R:3:initial_magmoms:R:1:castep_labels:S:1 n_minim_iter=1 pbc="T T T"
P        1.38810950       2.88810322       5.12429487       0.00000000 NULL
P        4.42445479       3.82316214       6.23916991       0.00000000 NULL
P        5.60328444       4.81295311       4.76863052       0.00000000 NULL
P        3.46442206       5.57026557       9.51861663       0.00000000 NULL
P        5.14612872       2.20454961       1.56039341       0.00000000 NULL
P        3.09879555       3.85769027       4.72702431       0.00000000 NULL
P        1.90229669       0.98703045       2.88897086       0.00000000 NULL
P        5.23821081       4.82540393       8.84347429       0.00000000 NULL
P        2.87002049       4.56820118       2.82603318       0.00000000 NULL
P        3.33107727       3.04792154       1.56704198       0.00000000 NULL
P        1.33335273       5.42963196       6.62209556       0.00000000 NULL
P        2.99145889       0.14927144       0.29748644       0.00000000 NULL
12
Lattice="4.852442178558868 -0.0004501277018751432 0.0013512552712345819 1.3570419609489435 5.576536483995652 0.0014569802860352496 0.270599847548071 2.8731319734421326 9.958778330672102" Properties=species:S:1:pos:R:3:initial_magmoms:R:1:castep_labels:S:1 n_minim_iter=2 pbc="T T T"
P        1.39189629       2.89171805       5.13412681       0.00000000 NULL
P        4.43478604       3.82807293       6.25222468       0.00000000 NULL
P        5.61526120       4.81886472       4.77900363       0.00000000 NULL
P        3.47325890       5.57784745       9.53679374       0.00000000 NULL
P        5.15691645       2.20668134       1.56491432       0.00000000 NULL
P        3.10605417       3.86255947       4.73671394       0.00000000 NULL
P        1.90688477       0.98869581       2.89459000       0.00000000 NULL
P        5.25087872       4.83183405       8.86115425       0.00000000 NULL
P        2.87599690       4.57360995       2.83245821       0.00000000 NULL
P        3.33780944       3.05119358       1.57136718       0.00000000 NULL
P        1.33742227       5.43688671       6.63517409       0.00000000 NULL
P        2.99750894       0.14929309       0.29891688       0.00000000 NULL
12
Lattice="5.099133258812018 -0.011990135931512692 0.03766861806762132 1.4127839854032744 5.724018933196579 0.039295188372347065 0.3519458477292341 2.9994831189214928 10.404042280456531" Properties=species:S:1:pos:R:3:initial_magmoms:R:1:castep_labels:S:1 n_minim_iter=3 pbc="T T T"
P        1.49020332       2.98138558       5.38158433       0.00000000 NULL
P        4.70030404       3.95005208       6.58250397       0.00000000 NULL
P        5.92170594       4.96543055       5.04211639       0.00000000 NULL
P        3.70166281       5.76629140       9.99450097       0.00000000 NULL
P        5.43223837       2.25903118       1.68108487       0.00000000 NULL
P        3.29269571       3.98333596       4.98159975       0.00000000 NULL
P        2.02485366       1.03038318       3.03642080       0.00000000 NULL
P        5.57684008       4.99169638       9.30772515       0.00000000 NULL
P        3.02898967       4.70754628       2.99532470       0.00000000 NULL
P        3.50979839       3.13183573       1.68186498       0.00000000 NULL
P        1.44358930       5.61721409       6.96454394       0.00000000 NULL
P        3.15159151       0.14978788       0.33638496       0.00000000 NULL
12
Lattice="5.177806808167599 -0.01254292793136104 0.08608682551576678 1.4341584844769348 5.701495309043981 0.06681076209192188 0.45535636072130564 3.0128654220805853 10.429282522819957" Properties=species:S:1:pos:R:3:initial_magmoms:R:1:castep_labels:S:1 n_minim_iter=4 pbc="T T T"
P        1.56194008       2.97696357       5.41117259       0.00000000 NULL
P        4.83649741       3.94956834       6.65080742       0.00000000 NULL
P        6.05748735       4.96110838       5.11394370       0.00000000 NULL
P        3.84997611       5.76383546      10.05410449       0.00000000 NULL
P        5.53394903       2.25236973       1.73970311       0.00000000 NULL
P        3.39120003       3.97903748       5.02897401       0.00000000 NULL
P        2.08634468       1.03666289       3.06006010       0.00000000 NULL
P        5.75109224       4.99369595       9.38924245       0.00000000 NULL
P        3.10077551       4.69865605       3.03783179       0.00000000 NULL
P        3.58020147       3.12058659       1.72581968       0.00000000 NULL
P        1.53004259       5.61271874       7.00455826       0.00000000 NULL
P        3.20256580       0.15270298       0.36803853       0.00000000 NULL
12
Lattice="5.24777951098402 -0.01252652337992624 0.15455986861893828 1.453753501982905 5.647346026512355 0.10350850544610356 0.5997911545135773 3.0162877353645214 10.379591274545778" Properties=species:S:1:pos:R:3:initial_magmoms:R:1:castep_labels:S:1 n_minim_iter=5 pbc="T T T"
P        1.65269744       2.95783263       5.40841043       0.00000000 NULL
P        4.99177685       3.93191957       6.69215714       0.00000000 NULL
P        6.20207420       4.93468819       5.17376503       0.00000000 NULL
P        4.03125690       5.73379176      10.05563685       0.00000000 NULL
P        5.63343703       2.23469726       1.80862924       0.00000000 NULL
P        3.50495855       3.95549074       5.05546507       0.00000000 NULL
P        2.15737559       1.04120232       3.06800713       0.00000000 NULL
P        5.95352787       4.97453369       9.42805993       0.00000000 NULL
P        3.17832419       4.66673556       3.07248452       0.00000000 NULL
P        3.65340651       3.09164142       1.77284541       0.00000000 NULL
P        1.64112377       5.58140210       7.00228857       0.00000000 NULL
P        3.24907645       0.15734919       0.41032742       0.00000000 NULL
12
Lattice="5.439173623574583 -0.006342402459324197 0.35960180835236205 1.514413036342524 5.520938330204749 0.2080397426924315 1.0349311811028823 3.0348283308930566 10.196788482934714" Properties=species:S:1:pos:R:3:initial_magmoms:R:1:castep_labels:S:1 n_minim_iter=6 pbc="T T T"
P        1.92415477       2.91359131       5.38154715       0.00000000 NULL
P        5.44375053       3.90150159       6.79334484       0.00000000 NULL
P        6.61653246       4.89058767       5.33128892       0.00000000 NULL
P        4.56471090       5.67023329      10.02202088       0.00000000 NULL
P        5.91402653       2.20114433       2.00853997       0.00000000 NULL
P        3.84143404       3.90579399       5.12096569       0.00000000 NULL
P        2.36613703       1.06491953       3.07994330       0.00000000 NULL
P        6.54836381       4.94400285       9.51290499       0.00000000 NULL
P        3.40284030       4.59944503       3.16268558       0.00000000 NULL
P        3.87000709       3.02347905       1.90484329       0.00000000 NULL
P        1.97479100       5.51568785       6.96929174       0.00000000 NULL
P        3.37627614       0.17865211       0.53678472       0.00000000 NULL
12
Lattice="5.521655106849055 0.04285549491905781 0.44524597359570045 1.594080490695228 5.5985409944477 0.22970679746969885 1.2444327988808117 3.0663219325702293 10.076268294554216" Properties=species:S:1:pos:R:3:initial_magmoms:R:1:castep_labels:S:1 n_minim_iter=7 pbc="T T T"
P        2.06737429       2.93922359       5.34504255       0.00000000 NULL
P        5.66591139       3.98333509       6.81020754       0.00000000 NULL
P        6.83336493       5.02268664       5.35165989       0.00000000 NULL
P        4.83390356       5.74331566       9.94342693       0.00000000 NULL
P        6.05362020       2.27853010       2.07561433       0.00000000 NULL
P        4.02563236       3.97016315       5.12803724       0.00000000 NULL
P        2.47286369       1.12123290       3.06218139       0.00000000 NULL
P        6.85121545       5.04552793       9.50544889       0.00000000 NULL
P        3.53196863       4.68772958       3.17155303       0.00000000 NULL
P        4.00991205       3.07174250       1.94054028       0.00000000 NULL
P        2.16336107       5.58850916       6.91556837       0.00000000 NULL
P        3.42938709       0.23201242       0.59269234       0.00000000 NULL
12
Lattice="5.486175267801307 0.06077840131557532 0.46086309353821076 1.6047708570177064 5.54007460396167 0.22780958934446643 1.285145597503968 3.0234453692355334 9.915299554590128" Properties=species:S:1:pos:R:3:initial_magmoms:R:1:castep_labels:S:1 n_minim_iter=8 pbc="T T T"
P        2.08407092       2.90423648       5.26493540       0.00000000 NULL
P        5.66773302       3.94837867       6.72382425       0.00000000 NULL
P        6.82378201       4.98586189       5.28608419       0.00000000 NULL
P        4.85671251       5.67606322       9.79292847       0.00000000 NULL
P        6.02920574       2.27113932       2.06362322       0.00000000 NULL
P        4.03246536       3.92961352       5.06127984       0.00000000 NULL
P        2.47514752       1.11778263       3.01613471       0.00000000 NULL
P        6.86138359       4.99915855       9.37781298       0.00000000 NULL
P        3.53374100       4.64683576       3.13020590       0.00000000 NULL
P        4.00789308       3.04296934       1.92279508       0.00000000 NULL
P        2.19321730       5.52332965       6.80905621       0.00000000 NULL
P        3.40766879       0.24726486       0.60017269       0.00000000 NULL
12
Lattice="5.51950878941174 0.07379548781873779 0.4708951523318252 1.62906991839599 5.5601067721546364 0.22850940235687328 1.3152900002338528 3.0288436053107946 9.921622958973298" Properties=species:S:1:pos:R:3:initial_magmoms:R:1:castep_labels:S:1 n_minim_iter=9 pbc="T T T"
P        2.11170527       2.91185371       5.27082116       0.00000000 NULL
P        5.72046470       3.96813301       6.73905163       0.00000000 NULL
P        6.88302946       5.01650931       5.29601959       0.00000000 NULL
P        4.91125299       5.69414054       9.80070505       0.00000000 NULL
P        6.07496701       2.29098881       2.07374972       0.00000000 NULL
P        4.07497356       3.94538042       5.07245006       0.00000000 NULL
P        2.49973562       1.12872633       3.01840927       0.00000000 NULL
P        6.93115904       5.02303417       9.39461803       0.00000000 NULL
P        3.56835488       4.66987893       3.13565924       0.00000000 NULL
P        4.04647617       3.05653617       1.92980991       0.00000000 NULL
P        2.23049112       5.54047682       6.81563158       0.00000000 NULL
P        3.42842361       0.25988726       0.60839157       0.00000000 NULL
12
Lattice="5.530474610009131 0.08614988765763118 0.4793430563195736 1.6463489245388399 5.5602408011016715 0.22827872366750668 1.3405542380910467 3.0231862061355628 9.884631306837376" Properties=species:S:1:pos:R:3:initial_magmoms:R:1:castep_labels:S:1 n_minim_iter=10 pbc="T T T"
P        2.13098404       2.90944962       5.25372839       0.00000000 NULL
P        5.75052437       3.97348315       6.72482953       0.00000000 NULL
P        6.91450666       5.02817949       5.28395306       0.00000000 NULL
P        4.94674806       5.69132743       9.76647044       0.00000000 NULL
P        6.09579238       2.30226859       2.07522379       0.00000000 NULL
P        4.10050465       3.94675327       5.06142512       0.00000000 NULL
P        2.51423306       1.13498192       3.00754608       0.00000000 NULL
P        6.97275149       5.02855888       9.37072199       0.00000000 NULL
P        3.58860219       4.67595993       3.12787402       0.00000000 NULL
P        4.06842916       3.05905652       1.92865769       0.00000000 NULL
P        2.25852184       5.53740104       6.79227997       0.00000000 NULL
P        3.43528393       0.27143748       0.61433737       0.00000000 NULL
12
Lattice="5.616955425542085 0.1770827188654704 0.5363312353519665 1.7751424547695496 5.57395502006099 0.22545269640436122 1.5161700202607598 2.9886774214128993 9.633524836448277" Properties=species:S:1:pos:R:3:initial_magmoms:R:1:castep_labels:S:1 n_minim_iter=11 pbc="T T T"
P        2.26918065       2.89947648       5.13751355       0.00000000 NULL
P        5.97028549       4.02208988       6.62739282       0.00000000 NULL
P        7.14753454       5.12414684       5.20064470       0.00000000 NULL
P        5.20137309       5.68426059       9.53251389       0.00000000 NULL
P        6.25402015       2.39061112       2.08424838       0.00000000 NULL
P        4.28630908       3.96588135       4.98678978       0.00000000 NULL
P        2.62060822       1.18284104       2.93292058       0.00000000 NULL
P        7.27541268       5.08108286       9.20768742       0.00000000 NULL
P        3.73819254       4.73104360       3.07385086       0.00000000 NULL
P        4.23093071       3.08565852       1.92087901       0.00000000 NULL
P        2.46042775       5.52762659       6.63281580       0.00000000 NULL
P        3.48980424       0.35607084       0.65492806       0.00000000 NULL
12
Lattice="5.802975357919483 0.36446535219511367 0.584634509219106 2.042728919505131 5.663230673944799 0.18948698790458907 1.7365789391116515 2.9297045235845265 9.178626828582539" Properties=species:S:1:pos:R:3:initial_magmoms:R:1:castep_labels:S:1 n_minim_iter=12 pbc="T T T"
P        2.48570177       2.91218352       4.91010185       0.00000000 NULL
P        6.33926598       4.15435671       6.38645302       0.00000000 NULL
P        7.56603121       5.35068699       4.98509572       0.00000000 NULL
P        5.60176176       5.71426871       9.06902715       0.00000000 NULL
P        6.57375261       2.59729996       2.03719856       0.00000000 NULL
P        4.59654963       4.03580691       4.81477076       0.00000000 NULL
P        2.80507597       1.27604979       2.77551011       0.00000000 NULL
P        7.77291085       5.22572424       8.84304659       0.00000000 NULL
P        4.01137337       4.89392278       2.93659324       0.00000000 NULL
P        4.53255302       3.17460263       1.86646404       0.00000000 NULL
P        2.79804112       5.55665108       6.31566352       0.00000000 NULL
P        3.60785016       0.52816214       0.69474404       0.00000000 NULL
12
Lattice="5.752673524256548 0.49560211988132963 0.5591914171786494 2.179501095355056 5.5403888918178765 0.2867797826562158 1.7592360043939475 3.041141762114954 8.899783665221548" Properties=species:S:1:pos:R:3:initial_magmoms:R:1:castep_labels:S:1 n_minim_iter=13 pbc="T T T"
P        2.52286706       2.97128487       4.78935415       0.00000000 NULL
P        6.35633552       4.28334866       6.22398739       0.00000000 NULL
P        7.59178012       5.44108714       4.88922135       0.00000000 NULL
P        5.65495371       5.79304662       8.81834708       0.00000000 NULL
P        6.59229078       2.71316952       1.99067017       0.00000000 NULL
P        4.62865100       4.08041216       4.73476083       0.00000000 NULL
P        2.81762858       1.35479787       2.67053913       0.00000000 NULL
P        7.79719128       5.38574880       8.60966236       0.00000000 NULL
P        4.07178828       4.92829042       2.91626178       0.00000000 NULL
P        4.57892230       3.18527202       1.86536895       0.00000000 NULL
P        2.92490609       5.56932435       6.18853412       0.00000000 NULL
P        3.58273833       0.64160065       0.68212779       0.00000000 NULL
12
Lattice="5.899531230402172 0.5260601871887287 0.5547802221319609 2.2556227795664356 5.6770210493770445 0.2709917441125846 1.7763331905528388 3.0828119961508036 9.072124389699804" Properties=species:S:1:pos:R:3:initial_magmoms:R:1:castep_labels:S:1 n_minim_iter=14 pbc="T T T"
P        2.57924017       3.02702394       4.87574992       0.00000000 NULL
P        6.50462603       4.38038042       6.32608867       0.00000000 NULL
P        7.78180801       5.57988729       4.95389506       0.00000000 NULL
P        5.77929101       5.91280463       8.96668014       0.00000000 NULL
P        6.76904916       2.79458099       2.00697747       0.00000000 NULL
P        4.74290828       4.17046394       4.81484815       0.00000000 NULL
P        2.88542779       1.38785261       2.71435611       0.00000000 NULL
P        7.98071928       5.50322334       8.75450123       0.00000000 NULL
P        4.17708333       5.05089608       2.94983207       0.00000000 NULL
P        4.69844964       3.26690319       1.88535750       0.00000000 NULL
P        2.99901497       5.68778231       6.29393968       0.00000000 NULL
P        3.67455666       0.66817425       0.68529091       0.00000000 NULL
12
Lattice="5.884033533270857 0.5345341719427092 0.5473049087324324 2.261034536532805 5.668424519692355 0.2641088691953484 1.7651505500592657 3.069082711051019 8.988902276482268" Properties=species:S:1:pos:R:3:initial_magmoms:R:1:castep_labels:S:1 n_minim_iter=15 pbc="T T T"
P        2.57192896       3.01894721       4.83034727       0.00000000 NULL
P        6.48712116       4.37525964       6.26449640       0.00000000 NULL
P        7.76351182       5.57618510       4.90374074       0.00000000 NULL
P        5.76368282       5.89848620       8.87978855       0.00000000 NULL
P        6.75567932       2.79925971       1.98360990       0.00000000 NULL
P        4.73111536       4.16247665       4.77017422       0.00000000 NULL
P        2.87760081       1.38669367       2.68654820       0.00000000 NULL
P        7.95816103       5.49414886       8.67018513       0.00000000 NULL
P        4.17035688       5.04650377       2.91814526       0.00000000 NULL
P        4.68989218       3.26434343       1.86607073       0.00000000 NULL
P        2.99599980       5.67405772       6.23288981       0.00000000 NULL
P        3.66549098       0.67468287       0.67791964       0.00000000 NULL
12
Lattice="5.892637331977189 0.5467341123912871 0.5418575494365526 2.2774750509432913 5.678096027616604 0.260089071036032 1.7616690826650303 3.068525032526137 8.951821813016807" Properties=species:S:1:pos:R:3:initial_magmoms:R:1:castep_labels:S:1 n_minim_iter=16 pbc="T T T"
P        2.57597838       3.02230399       4.81006619       0.00000000 NULL
P        6.49676563       4.38771834       6.23507363       0.00000000 NULL
P        7.77783917       5.59404373       4.87864908       0.00000000 NULL
P        5.77222438       5.90723287       8.83813305       0.00000000 NULL
P        6.77129055       2.81563990       1.97016076       0.00000000 NULL
P        4.73979454       4.17013781       4.75068359       0.00000000 NULL
P        2.88186315       1.39180965       2.67250646       0.00000000 NULL
P        7.96943458       5.50726709       8.63032761       0.00000000 NULL
P        4.18160364       5.06054667       2.90188905       0.00000000 NULL
P        4.70137806       3.27384711       1.85703770       0.00000000 NULL
P        3.00753591       5.68139073       6.20489049       0.00000000 NULL
P        3.67167789       0.68460571       0.67340501       0.00000000 NULL
12
Lattice="5.922582577138745 0.58925559606602 0.5258159895290762 2.334764730808013 5.7078822257515265 0.2528420182739798 1.7555770314554204 3.0751614069467923 8.846285854259067" Properties=species:S:1:pos:R:3:initial_magmoms:R:1:castep_labels:S:1 n_minim_iter=17 pbc="T T T"
P        2.59305917       3.03771088       4.75373362       0.00000000 NULL
P        6.53444650       4.43532278       6.15229016       0.00000000 NULL
P        7.83037754       5.65729951       4.80946076       0.00000000 NULL
P        5.80734619       5.94393462       8.71983649       0.00000000 NULL
P        6.82648823       2.87301967       1.93192572       0.00000000 NULL
P        4.77275545       4.19934188       4.69847339       0.00000000 NULL
P        2.89787333       1.41148766       2.63200095       0.00000000 NULL
P        8.01390323       5.55897511       8.51802179       0.00000000 NULL
P        4.22274671       5.10934617       2.85768343       0.00000000 NULL
P        4.74269088       3.30673964       1.83442377       0.00000000 NULL
P        3.05225199       5.71053946       6.12781782       0.00000000 NULL
P        3.69377120       0.71917275       0.66019511       0.00000000 NULL
12
Lattice="5.950135213090275 0.6435337017379524 0.5117645615620794 2.4049085343450085 5.728968498257938 0.26515838149690973 1.7604008511060405 3.1101932015375016 8.773930813633172" Properties=species:S:1:pos:R:3:initial_magmoms:R:1:castep_labels:S:1 n_minim_iter=18 pbc="T T T"
P        2.61805919       3.06753369       4.72043749       0.00000000 NULL
P        6.58245146       4.50752656       6.09882608       0.00000000 NULL
P        7.89052341       5.73820410       4.77059428       0.00000000 NULL
P        5.85640624       6.00771425       8.64016455       0.00000000 NULL
P        6.88717724       2.94590274       1.90536069       0.00000000 NULL
P        4.81364083       4.24231938       4.67477885       0.00000000 NULL
P        2.91534744       1.44159935       2.60218513       0.00000000 NULL
P        8.07024452       5.64126311       8.44472957       0.00000000 NULL
P        4.27353297       5.16816282       2.83599623       0.00000000 NULL
P        4.79131344       3.34607161       1.83061175       0.00000000 NULL
P        3.11671571       5.75567934       6.08566040       0.00000000 NULL
P        3.71742535       0.76314377       0.64897360       0.00000000 NULL
12
Lattice="5.973942195704996 0.7624844119722229 0.458418358797194 2.548396536971238 5.774371691350766 0.27170198428416353 1.7226566747291785 3.161319041145919 8.552258378234415" Properties=species:S:1:pos:R:3:initial_magmoms:R:1:castep_labels:S:1 n_minim_iter=19 pbc="T T T"
P        2.63661223       3.11651793       4.60611433       0.00000000 NULL
P        6.62780048       4.65015202       5.91699614       0.00000000 NULL
P        7.95756835       5.90383888       4.62335428       0.00000000 NULL
P        5.89726186       6.12601402       8.38578360       0.00000000 NULL
P        6.97563146       3.10523977       1.80688700       0.00000000 NULL
P        4.85427671       4.32297723       4.57330838       0.00000000 NULL
P        2.92111645       1.49780691       2.51095269       0.00000000 NULL
P        8.11235793       5.79578636       8.19764203       0.00000000 NULL
P        4.35209334       5.28989657       2.74792374       0.00000000 NULL
P        4.86225215       3.42806662       1.79111747       0.00000000 NULL
P        3.21668570       5.83683901       5.93525022       0.00000000 NULL
P        3.74969858       0.85760511       0.60524689       0.00000000 NULL
12
Lattice="6.04277096433928 0.7957926524166606 0.459678633141082 2.6059667138189067 5.82403674426709 0.2892287355484692 1.7487730375466242 3.2145807495878715 8.657253054375417" Properties=species:S:1:pos:R:3:initial_magmoms:R:1:castep_labels:S:1 n_minim_iter=20 pbc="T T T"
P        2.67673746       3.15797975       4.66762365       0.00000000 NULL
P        6.72015281       4.72851342       5.99161503       0.00000000 NULL
P        8.06225239       5.99266462       4.68516989       0.00000000 NULL
P        5.98204706       6.21546295       8.48744185       0.00000000 NULL
P        7.07310475       3.16842008       1.82579252       0.00000000 NULL
P        4.92153160       4.38125973       4.64081679       0.00000000 NULL
P        2.95516495       1.52561920       2.54000584       0.00000000 NULL
P        8.22343977       5.88860476       8.29895243       0.00000000 NULL
P        4.41906448       5.35948945       2.78677961       0.00000000 NULL
P        4.93175441       3.47502769       1.82394895       0.00000000 NULL
P        3.28255349       5.90849911       6.01647508       0.00000000 NULL
P        3.79962518       0.88466446       0.60799111       0.00000000 NULL
12
Lattice="6.000267700461748 0.7974401961922881 0.4525737204291579 2.5959707955185487 5.792242664628116 0.2855879540687 1.7328157961976351 3.1951147985986212 8.569493642351109" Properties=species:S:1:pos:R:3:initial_magmoms:R:1:castep_labels:S:1 n_minim_iter=21 pbc="T T T"
P        2.65737532       3.14015732       4.62036547       0.00000000 NULL
P        6.67492382       4.70691897       5.92858003       0.00000000 NULL
P        8.00713376       5.96446726       4.63571679       0.00000000 NULL
P        5.94146917       6.18261458       8.39908165       0.00000000 NULL
P        7.02646546       3.15856965       1.80300495       0.00000000 NULL
P        4.88722493       4.35834334       4.59444478       0.00000000 NULL
P        2.93265696       1.51773993       2.51224757       0.00000000 NULL
P        8.16559244       5.85885376       8.21197193       0.00000000 NULL
P        4.39194482       5.33359381       2.75656540       0.00000000 NULL
P        4.90028479       3.45844678       1.80551344       0.00000000 NULL
P        3.26319638       5.87505701       5.95433851       0.00000000 NULL
P        3.77482302       0.88486242       0.59991046       0.00000000 NULL
12
Lattice="6.003300316230181 0.8055712764434859 0.4497275770447944 2.6061723086335635 5.795123294788327 0.28666857178979877 1.7319564583605178 3.1992253604029894 8.560185809058346" Properties=species:S:1:pos:R:3:initial_magmoms:R:1:castep_labels:S:1 n_minim_iter=22 pbc="T T T"
P        2.65967144       3.14322265       4.61600834       0.00000000 NULL
P        6.68128091       4.71735344       5.92089989       0.00000000 NULL
P        8.01363419       5.97613208       4.62962996       0.00000000 NULL
P        5.94702668       6.19188313       8.38805851       0.00000000 NULL
P        7.03450318       3.17018847       1.79778609       0.00000000 NULL
P        4.89129195       4.36423263       4.59126501       0.00000000 NULL
P        2.93311424       1.52115672       2.50815187       0.00000000 NULL
P        8.17195914       5.86955250       8.20111471       0.00000000 NULL
P        4.39861676       5.34180266       2.75282445       0.00000000 NULL
P        4.90628549       3.46421749       1.80484796       0.00000000 NULL
P        3.27088827       5.88046282       5.94827055       0.00000000 NULL
P        3.77884329       0.89102108       0.59716012       0.00000000 NULL
12
Lattice="6.0451217261574595 0.9304356449502843 0.4063433159127855 2.7615025873909227 5.834114159948421 0.3040390568951603 1.719159425750144 3.26087226326134 8.416382249588201" Properties=species:S:1:pos:R:3:initial_magmoms:R:1:castep_labels:S:1 n_minim_iter=23 pbc="T T T"
P        2.69289033       3.18779580       4.54869341       0.00000000 NULL
P        6.77595525       4.87540861       5.80295299       0.00000000 NULL
P        8.10777067       6.15058985       4.53683453       0.00000000 NULL
P        6.03031100       6.33081370       8.21897371       0.00000000 NULL
P        7.15407451       3.34795278       1.71797786       0.00000000 NULL
P        4.94954616       4.45177881       4.54237873       0.00000000 NULL
P        2.93724464       1.57195151       2.44522471       0.00000000 NULL
P        8.26489566       6.03010192       8.03384859       0.00000000 NULL
P        4.49944682       5.46324121       2.69642553       0.00000000 NULL
P        4.99460465       3.55028581       1.79483823       0.00000000 NULL
P        3.38787075       5.95920114       5.85473740       0.00000000 NULL
P        3.83935558       0.98583393       0.55490493       0.00000000 NULL
