10
Lattice="5.75993 6.496093029091221e-16 -1.191954818359997e-16 1.1805002997641159 5.939613755654222 1.4753433126105163e-15 1.107517366549167 0.24833823565323224 6.119877203106664" Properties=species:S:1:pos:R:3:initial_magmoms:R:1:castep_labels:S:1 n_minim_iter=1 pbc="T T T"
P        3.06136964       4.27104166       5.83514563       0.00000000 NULL
P        5.12359781       0.73509175       4.71765973       0.00000000 NULL
P        6.81706211       4.92799976       5.58482062       0.00000000 NULL
P        4.79005468       4.72069059       3.09528518       0.00000000 NULL
P        3.46614345       1.20311832       3.64624426       0.00000000 NULL
P        5.54784923       5.43775823       1.37470067       0.00000000 NULL
P        2.16106029       4.83403857       3.90160225       0.00000000 NULL
P        5.75673467       2.57359781       5.35566978       0.00000000 NULL
P        6.35659548       1.95973516       3.52609577       0.00000000 NULL
P        5.22576881       2.12587366       1.16613832       0.00000000 NULL
10
Lattice="5.767039405808021 -0.0003642229502282056 -0.000884395281605746 1.1815817906923423 5.945534471851426 -0.0002540225855932217 1.1079289947097428 0.24844389841636774 6.133240754542862" Properties=species:S:1:pos:R:3:initial_magmoms:R:1:castep_labels:S:1 n_minim_iter=2 pbc="T T T"
P        3.06406205       4.27509033       5.84751716       0.00000000 NULL
P        5.12905733       0.73549878       4.72725149       0.00000000 NULL
P        6.82414373       4.93213308       5.59630424       0.00000000 NULL
P        4.79512413       4.72513169       3.10145578       0.00000000 NULL
P        3.46956191       1.20399666       3.65363096       0.00000000 NULL
P        5.55419783       5.44310123       1.37687224       0.00000000 NULL
P        2.16304624       4.83861845       3.90957321       0.00000000 NULL
P        5.76277811       2.57607830       5.36675184       0.00000000 NULL
P        6.36402724       1.96127282       3.53264886       0.00000000 NULL
P        5.23192213       2.12759826       1.16804021       0.00000000 NULL
10
Lattice="5.95530450063354 -0.010397891558044228 -0.024805195004508337 1.2098201346989488 6.100191861401217 -0.006646264538609955 1.1182802943906098 0.25153203717669587 6.489338957862374" Properties=species:S:1:pos:R:3:initial_magmoms:R:1:castep_labels:S:1 n_minim_iter=3 pbc="T T T"
P        3.13456092       4.38110743       6.17722786       0.00000000 NULL
P        5.27307654       0.74613987       4.98248455       0.00000000 NULL
P        7.01079412       5.03959293       5.90267471       0.00000000 NULL
P        4.92878004       4.84117289       3.26601352       0.00000000 NULL
P        3.55956752       1.22672462       3.85021836       0.00000000 NULL
P        5.72181758       5.58256387       1.43493606       0.00000000 NULL
P        2.21518659       4.95824978       4.12200678       0.00000000 NULL
P        5.92213158       2.64104512       5.66216526       0.00000000 NULL
P        6.56055723       2.00114504       3.70685919       0.00000000 NULL
P        5.39457796       2.17216844       1.21866781       0.00000000 NULL
10
Lattice="6.004792947215081 -0.015914732606247296 -0.035421893896419476 1.214273873033739 6.107587034205657 -0.007239424122502614 1.1162779051149523 0.25245850382414337 6.548975985999763" Properties=species:S:1:pos:R:3:initial_magmoms:R:1:castep_labels:S:1 n_minim_iter=4 pbc="T T T"
P        3.14550249       4.38725474       6.22790439       0.00000000 NULL
P        5.30574108       0.74629216       5.01741052       0.00000000 NULL
P        7.05306959       5.03443738       5.95330239       0.00000000 NULL
P        4.95945719       4.84867090       3.28937653       0.00000000 NULL
P        3.57841181       1.22129813       3.87851693       0.00000000 NULL
P        5.76180926       5.58958750       1.44276166       0.00000000 NULL
P        2.22685508       4.96133969       4.15730643       0.00000000 NULL
P        5.95877806       2.64568460       5.70948551       0.00000000 NULL
P        6.61008918       1.99876971       3.72982948       0.00000000 NULL
P        5.43455465       2.16755372       1.22167420       0.00000000 NULL
10
Lattice="6.040038139418732 -0.01912769375069742 -0.04533889403242978 1.2181842003730794 6.084820834115732 -0.005754774071061166 1.112379583138032 0.2545402694489419 6.563129859146516" Properties=species:S:1:pos:R:3:initial_magmoms:R:1:castep_labels:S:1 n_minim_iter=5 pbc="T T T"
P        3.15047087       4.37515268       6.23491917       0.00000000 NULL
P        5.32623144       0.74687478       5.01655328       0.00000000 NULL
P        7.08168574       5.00710667       5.96564539       0.00000000 NULL
P        4.98046863       4.83686280       3.29121598       0.00000000 NULL
P        3.58935299       1.21025167       3.88005904       0.00000000 NULL
P        5.79026365       5.57218554       1.44369740       0.00000000 NULL
P        2.23679843       4.94100416       4.16662684       0.00000000 NULL
P        5.98305905       2.64186215       5.71881404       0.00000000 NULL
P        6.64529743       1.98989786       3.72881894       0.00000000 NULL
P        5.46216186       2.15332354       1.21680509       0.00000000 NULL
10
Lattice="6.092094646762843 -0.018684028141827798 -0.057506595770898505 1.22931071143793 6.029814520961089 0.0004450233895142468 1.1094800382783871 0.2612793517934036 6.554989264566992" Properties=species:S:1:pos:R:3:initial_magmoms:R:1:castep_labels:S:1 n_minim_iter=6 pbc="T T T"
P        3.16327638       4.34804104       6.21886018       0.00000000 NULL
P        5.35853635       0.75255442       4.99341904       0.00000000 NULL
P        7.13156710       4.95612038       5.96366148       0.00000000 NULL
P        5.01670432       4.80979732       3.28362653       0.00000000 NULL
P        3.60738443       1.19247681       3.86616784       0.00000000 NULL
P        5.83781098       5.53326803       1.44480345       0.00000000 NULL
P        2.25908899       4.89619289       4.16656776       0.00000000 NULL
P        6.02373471       2.63616888       5.71108073       0.00000000 NULL
P        6.70116892       1.97714934       3.71500383       0.00000000 NULL
P        5.50491709       2.12823239       1.20742877       0.00000000 NULL
10
Lattice="6.338296723290567 0.013417157516604059 -0.07957227561436825 1.3128725375457373 5.829302094991697 0.03815829349753161 1.1347591260795575 0.30231061961495 6.533577770890401" Properties=species:S:1:pos:R:3:initial_magmoms:R:1:castep_labels:S:1 n_minim_iter=7 pbc="T T T"
P        3.28230801       4.27179727       6.18064163       0.00000000 NULL
P        5.54566278       0.80435954       4.92936916       0.00000000 NULL
P        7.43242124       4.81245221       5.99408375       0.00000000 NULL
P        5.23012332       4.73735188       3.28726506       0.00000000 NULL
P        3.72394417       1.14888858       3.83130674       0.00000000 NULL
P        6.10145049       5.42131702       1.48007550       0.00000000 NULL
P        2.40581476       4.74625701       4.18872593       0.00000000 NULL
P        6.26370368       2.65509074       5.71131952       0.00000000 NULL
P        6.99333008       1.96885004       3.69729472       0.00000000 NULL
P        5.72661538       2.06129012       1.20043909       0.00000000 NULL
10
Lattice="6.554432535733195 0.1450032503201141 0.011375932167282986 1.4928606551525148 5.66985912634397 0.14356294311131795 1.2786226604286024 0.40921601337812563 6.647055968570954" Properties=species:S:1:pos:R:3:initial_magmoms:R:1:castep_labels:S:1 n_minim_iter=8 pbc="T T T"
P        3.55326656       4.30878869       6.33321026       0.00000000 NULL
P        5.79038089       0.97712840       5.02908246       0.00000000 NULL
P        7.92882548       4.84677397       6.30122977       0.00000000 NULL
P        5.55020879       4.78323401       3.48870260       0.00000000 NULL
P        3.91017872       1.19097836       3.93768632       0.00000000 NULL
P        6.47457073       5.45731282       1.68442744       0.00000000 NULL
P        2.70794244       4.68176450       4.36998818       0.00000000 NULL
P        6.62718136       2.83271480       5.92775000       0.00000000 NULL
P        7.35237579       2.10071923       3.90006273       0.00000000 NULL
P        5.97537810       2.08080380       1.34667922       0.00000000 NULL
10
Lattice="6.450962615593816 0.08931926573672132 0.034981154424152366 1.4142333745185047 5.317972054907501 0.22724199811947685 1.2814070459347955 0.4655076332873348 6.394100008417863" Properties=species:S:1:pos:R:3:initial_magmoms:R:1:castep_labels:S:1 n_minim_iter=9 pbc="T T T"
P        3.46824878       4.11462815       6.14304114       0.00000000 NULL
P        5.69251234       0.96179295       4.83617304       0.00000000 NULL
P        7.81086987       4.56450412       6.17737245       0.00000000 NULL
P        5.42479432       4.49953682       3.43768220       0.00000000 NULL
P        3.84583899       1.14117167       3.81738471       0.00000000 NULL
P        6.34571910       5.14196190       1.72727438       0.00000000 NULL
P        2.65777910       4.43203349       4.27392682       0.00000000 NULL
P        6.51616210       2.70822373       5.75371695       0.00000000 NULL
P        7.22973165       1.96662686       3.82230690       0.00000000 NULL
P        5.85046962       1.89029236       1.33515133       0.00000000 NULL
10
Lattice="6.677423988198657 0.11736726722981877 0.025804517689628905 1.4895697091149511 5.502263586452116 0.24087041506768692 1.3164101456710713 0.49434553558171285 6.683394314108002" Properties=species:S:1:pos:R:3:initial_magmoms:R:1:castep_labels:S:1 n_minim_iter=10 pbc="T T T"
P        3.60314791       4.27415215       6.42587054       0.00000000 NULL
P        5.88030607       1.02135751       5.04759081       0.00000000 NULL
P        8.09611904       4.75483644       6.45316984       0.00000000 NULL
P        5.62772168       4.67036812       3.59154568       0.00000000 NULL
P        3.97481087       1.20377950       3.98687362       0.00000000 NULL
P        6.59316423       5.34396284       1.79732301       0.00000000 NULL
P        2.76532869       4.59563531       4.46167984       0.00000000 NULL
P        6.74574711       2.83537117       6.00727420       0.00000000 NULL
P        7.49138587       2.06605738       3.98306061       0.00000000 NULL
P        6.06243649       1.97585969       1.39118547       0.00000000 NULL
