3
Lattice="3.418250000000001 8.057685330373475e-16 -1.7664080297824902e-16 -0.8595419905004107 4.435187843898679 5.95000281345563e-16 -0.11410369179245972 -1.115686934802746 4.497714341299343" Properties=species:S:1:pos:R:3:initial_magmoms:R:1:castep_labels:S:1 n_minim_iter=1 pbc="T T T"
P        0.85224052       2.78742331       0.04400924       0.00000000 NULL
P        0.54371041      -0.41587968       3.17325981       0.00000000 NULL
P        2.42961371       0.61675527       4.18085936       0.00000000 NULL
3
Lattice="3.4207326172881958 -0.0003519364202638967 -0.0004100226547341141 -0.8606228997196091 4.43708306210511 0.0012682410781854458 -0.114611199934456 -1.1149481099359702 4.497659373736034" Properties=species:S:1:pos:R:3:initial_magmoms:R:1:castep_labels:S:1 n_minim_iter=2 pbc="T T T"
P        0.85250488       2.78882984       0.04475590       0.00000000 NULL
P        0.54386706      -0.41537693       3.17312566       0.00000000 NULL
P        2.43077607       0.61761294       4.18094218       0.00000000 NULL
3
Lattice="3.5728558637547683 -0.02235984238955708 -0.02593583288986088 -0.9274306273854985 4.553078893077756 0.07901515937882538 -0.14609271639603677 -1.0696666638198356 4.494226716172502" Properties=species:S:1:pos:R:3:initial_magmoms:R:1:castep_labels:S:1 n_minim_iter=3 pbc="T T T"
P        0.86804385       2.87511268       0.09063178       0.00000000 NULL
P        0.55343222      -0.38484133       3.16474750       0.00000000 NULL
P        2.50143669       0.66956943       4.18540172       0.00000000 NULL
3
Lattice="3.581855164771652 -0.02701354108056386 -0.04243310070538972 -0.935731747833886 4.568137234693913 0.11335479133144077 -0.16658120632148593 -1.0423880151037468 4.455285911082903" Properties=species:S:1:pos:R:3:initial_magmoms:R:1:castep_labels:S:1 n_minim_iter=4 pbc="T T T"
P        0.86348311       2.89520550       0.10740633       0.00000000 NULL
P        0.54467891      -0.36590361       3.13500394       0.00000000 NULL
P        2.48504895       0.68504873       4.14778381       0.00000000 NULL
3
Lattice="3.5653197983789258 -0.027671484542397904 -0.060002197786307644 -0.932427501831116 4.568933141966573 0.1486851537073053 -0.18893181690578226 -1.0111763541572523 4.405522553318516" Properties=species:S:1:pos:R:3:initial_magmoms:R:1:castep_labels:S:1 n_minim_iter=5 pbc="T T T"
P        0.85562584       2.90847701       0.12400407       0.00000000 NULL
P        0.53093462      -0.34445217       3.09777327       0.00000000 NULL
P        2.44954478       0.70157791       4.09955414       0.00000000 NULL
3
Lattice="3.558754528706373 -0.026768703400961432 -0.06469097613407065 -0.9296052597754693 4.568570625803454 0.1590660239260064 -0.1951767917423638 -1.0018408313964111 4.392593583755338" Properties=species:S:1:pos:R:3:initial_magmoms:R:1:castep_labels:S:1 n_minim_iter=6 pbc="T T T"
P        0.85391263       2.91214843       0.12913256       0.00000000 NULL
P        0.52681837      -0.33812523       3.08805907       0.00000000 NULL
P        2.43866794       0.70784777       4.08737591       0.00000000 NULL
3
Lattice="3.5293543529929425 -0.02191088849039027 -0.08495824214710447 -0.9159093606478277 4.567327523198282 0.2051859824602052 -0.22244849657522064 -0.9603956005257005 4.338426455390136" Properties=species:S:1:pos:R:3:initial_magmoms:R:1:castep_labels:S:1 n_minim_iter=7 pbc="T T T"
P        0.84705665       2.92876349       0.15242172       0.00000000 NULL
P        0.50874195      -0.31020683       3.04718424       0.00000000 NULL
P        2.39107917       0.73716601       4.03668383       0.00000000 NULL
3
Lattice="3.496148585236514 -0.012645089860727947 -0.10518332108859979 -0.895537149966998 4.565909697737355 0.2571503146358208 -0.2509763858141269 -0.9133948610774661 4.291396871763504" Properties=species:S:1:pos:R:3:initial_magmoms:R:1:castep_labels:S:1 n_minim_iter=8 pbc="T T T"
P        0.84283171       2.94744972       0.18051356       0.00000000 NULL
P        0.48953063      -0.27929254       3.01103420       0.00000000 NULL
P        2.34168004       0.77674594       3.99462161       0.00000000 NULL
3
Lattice="3.4599872592729297 0.00024328717362453217 -0.1257812211252571 -0.8697214398088134 4.561849801536317 0.3147474337157067 -0.2810785502172596 -0.8604624424811488 4.2493806634994025" Properties=species:S:1:pos:R:3:initial_magmoms:R:1:castep_labels:S:1 n_minim_iter=9 pbc="T T T"
P        0.84049171       2.96635339       0.21317675       0.00000000 NULL
P        0.46901865      -0.24550035       2.97797894       0.00000000 NULL
P        2.29074892       0.82535779       3.95872583       0.00000000 NULL
3
Lattice="3.4235021059330997 0.016161339310293572 -0.14658312642906052 -0.8398932901238774 4.553541908466425 0.37679387212023746 -0.31242719350431225 -0.8022941764631719 4.212518399187528" Properties=species:S:1:pos:R:3:initial_magmoms:R:1:castep_labels:S:1 n_minim_iter=10 pbc="T T T"
P        0.84006476       2.98418817       0.24986842       0.00000000 NULL
P        0.44784947      -0.20950850       2.94797651       0.00000000 NULL
P        2.24040661       0.88121679       3.92876977       0.00000000 NULL
3
Lattice="3.388256261679914 0.03478825732009108 -0.16715130442934606 -0.8068620128759884 4.538713571261863 0.44066575581337664 -0.3443938189049774 -0.740836661817808 4.182054361694034" Properties=species:S:1:pos:R:3:initial_magmoms:R:1:castep_labels:S:1 n_minim_iter=11 pbc="T T T"
P        0.84162025       2.99907809       0.28916305       0.00000000 NULL
P        0.42673878      -0.17261961       2.92176862       0.00000000 NULL
P        2.19228436       0.94136392       3.90526400       0.00000000 NULL
3
Lattice="3.354690101734867 0.05610286646020789 -0.18783104972226808 -0.7707658176625543 4.515949606119862 0.5062542543327272 -0.3774405519255071 -0.6759302733566046 4.158467892923743" Properties=species:S:1:pos:R:3:initial_magmoms:R:1:castep_labels:S:1 n_minim_iter=12 pbc="T T T"
P        0.84497136       3.01060013       0.33134783       0.00000000 NULL
P        0.40578285      -0.13485986       2.89925113       0.00000000 NULL
P        2.14619972       1.00494119       3.88819576       0.00000000 NULL
3
Lattice="3.252202957464034 0.13654368343929035 -0.2599337145510969 -0.6406225754754249 4.410665025291527 0.7343535243424208 -0.4951469211648474 -0.4442903442076668 4.112074045640029" Properties=species:S:1:pos:R:3:initial_magmoms:R:1:castep_labels:S:1 n_minim_iter=13 pbc="T T T"
P        0.86279034       3.03822321       0.48926447       0.00000000 NULL
P        0.33535029      -0.00427002       2.83795260       0.00000000 NULL
P        1.99838479       1.22968399       3.85896242       0.00000000 NULL
3
Lattice="3.2917225073807543 0.17344131452345712 -0.3385932000213092 -0.602685264788946 4.375504404228104 0.744827531285191 -0.6120088906954115 -0.44844782771946456 4.156186324633278" Properties=species:S:1:pos:R:3:initial_magmoms:R:1:castep_labels:S:1 n_minim_iter=14 pbc="T T T"
P        0.87864363       3.04224329       0.50863919       0.00000000 NULL
P        0.28278529      -0.00858760       2.81767599       0.00000000 NULL
P        1.94133882       1.23831497       3.82995151       0.00000000 NULL
