5
Lattice="3.061599999999999 1.3293779558442806e-15 1.381763819118345e-17 -0.9889694191169704 3.557150597451765 -7.121382630070231e-16 -0.24425533634937674 -0.5930927644938018 9.617294156828619" Properties=species:S:1:pos:R:3:initial_magmoms:R:1:castep_labels:S:1 n_minim_iter=1 pbc="T T T"
P        0.87934929       1.24845867       1.06271100       0.00000000 NULL
P       -0.55275877       2.08307735       6.07582464       0.00000000 NULL
P        0.19638576       2.07616215       9.31810783       0.00000000 NULL
P        0.71813476       0.23055445       7.83303123       0.00000000 NULL
P        1.24498615       2.46215043       7.63546604       0.00000000 NULL
5
Lattice="3.065954790416701 -0.00015013149470432215 -0.0009166192490214967 -0.9905505514937881 3.56212855311968 -0.0006526129883822546 -0.24745302247505915 -0.5964676495343095 9.63246449034969" Properties=species:S:1:pos:R:3:initial_magmoms:R:1:castep_labels:S:1 n_minim_iter=2 pbc="T T T"
P        0.88030146       1.24965955       1.06394010       0.00000000 NULL
P       -0.55535519       2.08429831       6.08459684       0.00000000 NULL
P        0.19356488       2.07663712       9.33232485       0.00000000 NULL
P        0.71669071       0.22916027       7.84489940       0.00000000 NULL
P        1.24447617       2.46323681       7.64606575       0.00000000 NULL
5
Lattice="3.25144743352582 -0.006034112658788549 -0.041392589526563855 -1.0573054373767632 3.774301759599617 -0.029183171923802417 -0.3882575474686228 -0.7435435995617788 10.279862405979951" Properties=species:S:1:pos:R:3:initial_magmoms:R:1:castep_labels:S:1 n_minim_iter=3 pbc="T T T"
P        0.92061152       1.30037291       1.11574442       0.00000000 NULL
P       -0.66811342       2.13438968       6.45799695       0.00000000 NULL
P        0.06888853       2.09387708       9.93877092       0.00000000 NULL
P        0.65137007       0.16801998       8.35052953       0.00000000 NULL
P        1.21991097       2.50698679       8.09649959       0.00000000 NULL
5
Lattice="3.3093932431920217 0.015337713840757964 -0.06449590509157456 -1.0511922378485214 3.8109685332141994 -0.052580812666488064 -0.4695942441885304 -0.8359494367722466 10.400450562735063" Properties=species:S:1:pos:R:3:initial_magmoms:R:1:castep_labels:S:1 n_minim_iter=4 pbc="T T T"
P        0.93972294       1.30916227       1.10790110       0.00000000 NULL
P       -0.70674139       2.10329112       6.51537720       0.00000000 NULL
P        0.01195514       2.03907305      10.04203592       0.00000000 NULL
P        0.60534101       0.11937112       8.43286367       0.00000000 NULL
P        1.20507704       2.47235150       8.14942673       0.00000000 NULL
5
Lattice="3.3487555483489015 0.04498256056091472 -0.09038544950588233 -1.0294640342439147 3.79613963653678 -0.08642149216265962 -0.5598032726045644 -0.9515425348724013 10.42143556924777" Properties=species:S:1:pos:R:3:initial_magmoms:R:1:castep_labels:S:1 n_minim_iter=5 pbc="T T T"
P        0.95612718       1.30025083       1.08123157       0.00000000 NULL
P       -0.74146465       2.02388176       6.50532269       0.00000000 NULL
P       -0.04945016       1.92495445      10.04125496       0.00000000 NULL
P        0.54763264       0.04379425       8.42930744       0.00000000 NULL
P        1.18294165       2.38370407       8.11280387       0.00000000 NULL
5
Lattice="3.394211043019543 0.08734018667066447 -0.12724519922744806 -0.9949336054279906 3.747762583689087 -0.1405869383902451 -0.6874214475215719 -1.1277728197991366 10.429311581287829" Properties=species:S:1:pos:R:3:initial_magmoms:R:1:castep_labels:S:1 n_minim_iter=6 pbc="T T T"
P        0.97688027       1.27685587       1.03864931       0.00000000 NULL
P       -0.78920144       1.88514700       6.47377909       0.00000000 NULL
P       -0.13840403       1.72942856      10.01380987       0.00000000 NULL
P        0.46209933      -0.07975705       8.40308975       0.00000000 NULL
P        1.14903494       2.22730841       8.04001485       0.00000000 NULL
5
Lattice="3.5052647574979696 0.20204082204750026 -0.23072128835120856 -0.8975405083022086 3.6005362039100612 -0.2929035369259696 -1.0435468612297794 -1.6207349566781941 10.611266455924898" Properties=species:S:1:pos:R:3:initial_magmoms:R:1:castep_labels:S:1 n_minim_iter=7 pbc="T T T"
P        1.03018107       1.20805640       0.94154875       0.00000000 NULL
P       -0.92508597       1.48805000       6.48424735       0.00000000 NULL
P       -0.39787098       1.16635487      10.09349255       0.00000000 NULL
P        0.21684072      -0.42783690       8.44902312       0.00000000 NULL
P        1.05099115       1.77958710       7.96783261       0.00000000 NULL
5
Lattice="3.510889399105373 0.2925665558016233 -0.32035106693479254 -0.7941791713003051 3.407302018922088 -0.3503382188133549 -1.3430830358663934 -1.8341752054152956 11.072459107711873" Properties=species:S:1:pos:R:3:initial_magmoms:R:1:castep_labels:S:1 n_minim_iter=8 pbc="T T T"
P        1.04293630       1.14978762       0.93346286       0.00000000 NULL
P       -1.04359766       1.22909647       6.74013260       0.00000000 NULL
P       -0.64031985       0.83003062      10.51136223       0.00000000 NULL
P       -0.01228892      -0.57519414       8.73407041       0.00000000 NULL
P        0.93778356       1.50523583       8.20701620       0.00000000 NULL
5
Lattice="3.5398217862065318 0.3496374198802009 -0.40032499033203 -0.7372166640527699 3.383935413432223 -0.3605551240403153 -1.607666244867614 -1.9353737651367395 11.703647176837539" Properties=species:S:1:pos:R:3:initial_magmoms:R:1:castep_labels:S:1 n_minim_iter=9 pbc="T T T"
P        1.04852957       1.15162742       0.97339934       0.00000000 NULL
P       -1.18147828       1.14855650       7.14236775       0.00000000 NULL
P       -0.87652892       0.71929755      11.13509363       0.00000000 NULL
P       -0.21764973      -0.60379026       9.17088002       0.00000000 NULL
P        0.85219710       1.43482916       8.61139889       0.00000000 NULL
5
Lattice="3.4670152179930414 0.3647447209885211 -0.39981404802611936 -0.6961458466248275 3.2928169131970195 -0.3548003910776399 -1.603179295467891 -1.906195250066881 11.42881019087493" Properties=species:S:1:pos:R:3:initial_magmoms:R:1:castep_labels:S:1 n_minim_iter=10 pbc="T T T"
P        1.03543376       1.12980035       0.93754261       0.00000000 NULL
P       -1.16205437       1.10308943       6.98758817       0.00000000 NULL
P       -0.87359945       0.68295209      10.87955550       0.00000000 NULL
P       -0.22920471      -0.59207939       8.94291169       0.00000000 NULL
P        0.84067264       1.39577122       8.39051236       0.00000000 NULL
5
Lattice="3.494520978245315 0.3668181736884474 -0.4058546529569756 -0.7026217978361973 3.3392007727401056 -0.36700160868910603 -1.6247505173848733 -1.95246940095911 11.575414504633814" Properties=species:S:1:pos:R:3:initial_magmoms:R:1:castep_labels:S:1 n_minim_iter=11 pbc="T T T"
P        1.04198566       1.14019687       0.95099112       0.00000000 NULL
P       -1.17925179       1.10530118       7.07060998       0.00000000 NULL
P       -0.89210835       0.67301743      11.01293600       0.00000000 NULL
P       -0.24047451      -0.61263047       9.05324683       0.00000000 NULL
P        0.84592919       1.39546637       8.49042130       0.00000000 NULL
