12
Lattice="4.267107654035488 0.0 0.0 0.0 9.460055490175929 0.0 0.0 0.0 8.867287863889013" Properties=species:S:1:pos:R:3:initial_magmoms:R:1:castep_labels:S:1:forces:R:3 n_minim_iter=1 energy=-60.919795587409 stress="-0.0010570294962036764 0.0 -0.0 0.0 0.0007996167205926003 -0.0 -0.0 -0.0 0.0010145091744671823" free_energy=-60.919795587409 pbc="T T T"
P        4.13334214       1.45479530       5.65978372       0.00000000 NULL      -0.17862000       0.40133300      -0.64169800
P        4.13334214       8.00526019       3.20750414       0.00000000 NULL      -0.17862000      -0.40133200       0.64169800
P        4.13334214       1.45479530       3.20750414       0.00000000 NULL      -0.17862000       0.40133200       0.64169800
P        4.13334214       8.00526019       5.65978372       0.00000000 NULL      -0.17862000      -0.40133300      -0.64169800
P        1.04838129       3.35213203       5.52616457       0.00000000 NULL       0.07151500       0.13636300       0.48837200
P        1.04838129       6.10792346       3.34112329       0.00000000 NULL       0.07151500      -0.13636300      -0.48837200
P        1.04838129       3.35213203       3.34112329       0.00000000 NULL       0.07151500       0.13636300      -0.48837200
P        1.04838129       6.10792346       5.52616457       0.00000000 NULL       0.07151500      -0.13636300       0.48837200
P        3.13181033       6.12983013       6.39698352       0.00000000 NULL       0.10710500       0.22223500       0.16403400
P        3.13181033       3.33022536       2.47030435       0.00000000 NULL       0.10710500      -0.22223500      -0.16403400
P        3.13181033       6.12983013       2.47030435       0.00000000 NULL       0.10710500       0.22223500      -0.16403400
P        3.13181033       3.33022536       6.39698352       0.00000000 NULL       0.10710500      -0.22223500       0.16403400
12
Lattice="4.350965559890497 0.0 0.0 0.0 9.321802981417635 0.0 0.0 0.0 8.703195827856206" Properties=species:S:1:pos:R:3:initial_magmoms:R:1:castep_labels:S:1:forces:R:3 n_minim_iter=2 energy=-61.04451330913 stress="0.001258160240467856 0.0 -0.0 0.0 -0.008434506587290266 0.0 -0.0 0.0 -0.002427848121416188" free_energy=-61.04451330913 pbc="T T T"
P        4.20520310       1.45387592       5.52265162       0.00000000 NULL      -0.19044000      -0.05049000      -0.24787400
P        4.20520310       7.86792706       3.18054421       0.00000000 NULL      -0.19044000       0.05049000       0.24787400
P        4.20520310       1.45387592       3.18054421       0.00000000 NULL      -0.19044000      -0.05049000       0.24787400
P        4.20520310       7.86792706       5.52265162       0.00000000 NULL      -0.19044000       0.05049000      -0.24787400
P        1.07273503       3.31005437       5.44855645       0.00000000 NULL       0.28535800       0.28037300       0.46036300
P        1.07273503       6.01174861       3.25463938       0.00000000 NULL       0.28535800      -0.28037300      -0.46036300
P        1.07273503       3.31005437       3.25463938       0.00000000 NULL       0.28535800       0.28037300      -0.46036300
P        1.07273503       6.01174861       5.44855645       0.00000000 NULL       0.28535800      -0.28037300       0.46036300
P        3.19897457       6.05151064       6.28688648       0.00000000 NULL      -0.09491800      -0.02136300       0.18347200
P        3.19897457       3.27029234       2.41630935       0.00000000 NULL      -0.09491800       0.02136300      -0.18347200
P        3.19897457       6.05151064       2.41630935       0.00000000 NULL      -0.09491800      -0.02136300      -0.18347200
P        3.19897457       3.27029234       6.28688648       0.00000000 NULL      -0.09491800       0.02136300       0.18347200
12
Lattice="4.383454770929174 0.0 0.0 0.0 9.522552768047351 0.0 0.0 0.0 8.679315909564677" Properties=species:S:1:pos:R:3:initial_magmoms:R:1:castep_labels:S:1:forces:R:3 n_minim_iter=3 energy=-61.12247304793 stress="0.0073367619262141425 -0.0 -0.0 -0.0 0.0008681184912937815 0.0 -0.0 0.0 0.00020243493100850828" free_energy=-61.12247304793 pbc="T T T"
P        4.22876562       1.49745394       5.48520244       0.00000000 NULL      -0.11866300       0.32636800       0.02590100
P        4.22876562       8.02509883       3.19411347       0.00000000 NULL      -0.11866300      -0.32636800      -0.02590100
P        4.22876562       1.49745394       3.19411347       0.00000000 NULL      -0.11866300       0.32636800      -0.02590100
P        4.22876562       8.02509883       5.48520244       0.00000000 NULL      -0.11866300      -0.32636800       0.02590100
P        1.08611708       3.38851586       5.45323718       0.00000000 NULL       0.15885900       0.20004600       0.15999000
P        1.08611708       6.13403690       3.22607873       0.00000000 NULL       0.15885900      -0.20004600      -0.15999000
P        1.08611708       3.38851586       3.22607873       0.00000000 NULL       0.15885900       0.20004600      -0.15999000
P        1.08611708       6.13403690       5.45323718       0.00000000 NULL       0.15885900      -0.20004600       0.15999000
P        3.22532818       6.18869307       6.27651253       0.00000000 NULL      -0.04019600       0.02975800       0.08261000
P        3.22532818       3.33385969       2.40280338       0.00000000 NULL      -0.04019600      -0.02975800      -0.08261000
P        3.22532818       6.18869307       2.40280338       0.00000000 NULL      -0.04019600       0.02975800      -0.08261000
P        3.22532818       3.33385969       6.27651253       0.00000000 NULL      -0.04019600      -0.02975800       0.08261000
12
Lattice="4.311961458623782 0.0 0.0 0.0 9.585519854369647 0.0 0.0 0.0 8.658727918625662" Properties=species:S:1:pos:R:3:initial_magmoms:R:1:castep_labels:S:1:forces:R:3 n_minim_iter=4 energy=-61.157681916 stress="-0.0005367911820032871 0.0 -0.0 0.0 0.0009699739259831404 0.0 -0.0 0.0 -0.0021716697442339013" free_energy=-61.157681916 pbc="T T T"
P        4.15513116       1.51605651       5.46147586       0.00000000 NULL      -0.06789100       0.21380500       0.18275300
P        4.15513116       8.06946334       3.19725206       0.00000000 NULL      -0.06789100      -0.21380500      -0.18275300
P        4.15513116       1.51605651       3.19725206       0.00000000 NULL      -0.06789100       0.21380500      -0.18275300
P        4.15513116       8.06946334       5.46147586       0.00000000 NULL      -0.06789100      -0.21380500       0.18275300
P        1.07213202       3.41592122       5.45095265       0.00000000 NULL       0.08124800       0.22626900      -0.07150600
P        1.07213202       6.16959864       3.20777527       0.00000000 NULL       0.08124800      -0.22626900       0.07150600
P        1.07213202       3.41592122       3.20777527       0.00000000 NULL       0.08124800       0.22626900       0.07150600
P        1.07213202       6.16959864       5.45095265       0.00000000 NULL       0.08124800      -0.22626900      -0.07150600
P        3.17365849       6.23328329       6.26553832       0.00000000 NULL      -0.01335700       0.04342100       0.24529400
P        3.17365849       3.35223657       2.39318960       0.00000000 NULL      -0.01335700      -0.04342100      -0.24529400
P        3.17365849       6.23328329       2.39318960       0.00000000 NULL      -0.01335700       0.04342100      -0.24529400
P        3.17365849       3.35223657       6.26553832       0.00000000 NULL      -0.01335700      -0.04342100       0.24529400
12
Lattice="4.299341767946739 0.0 0.0 0.0 9.561340812550243 0.0 0.0 0.0 8.791352805085186" Properties=species:S:1:pos:R:3:initial_magmoms:R:1:castep_labels:S:1:forces:R:3 n_minim_iter=5 energy=-61.173403784208 stress="-0.0005065437237554409 -0.0 0.0 -0.0 -0.00023633726344341862 0.0 0.0 0.0 0.0026272147848771083" free_energy=-61.173403784208 pbc="T T T"
P        4.13936638       1.52056147       5.54360133       0.00000000 NULL      -0.03651400       0.17325300       0.00564900
P        4.13936638       8.04077934       3.24775147       0.00000000 NULL      -0.03651400      -0.17325300      -0.00564900
P        4.13936638       1.52056147       3.24775147       0.00000000 NULL      -0.03651400       0.17325300      -0.00564900
P        4.13936638       8.04077934       5.54360133       0.00000000 NULL      -0.03651400      -0.17325300       0.00564900
P        1.07247770       3.41439366       5.53817416       0.00000000 NULL       0.04998200       0.21841500      -0.30625500
P        1.07247770       6.14694715       3.25317864       0.00000000 NULL       0.04998200      -0.21841500       0.30625500
P        1.07247770       3.41439366       3.25317864       0.00000000 NULL       0.04998200       0.21841500       0.30625500
P        1.07247770       6.14694715       5.53817416       0.00000000 NULL       0.04998200      -0.21841500      -0.30625500
P        3.16449086       6.22013371       6.36824242       0.00000000 NULL      -0.01346800       0.03367300       0.22358200
P        3.16449086       3.34120710       2.42311038       0.00000000 NULL      -0.01346800      -0.03367300      -0.22358200
P        3.16449086       6.22013371       2.42311038       0.00000000 NULL      -0.01346800       0.03367300      -0.22358200
P        3.16449086       3.34120710       6.36824242       0.00000000 NULL      -0.01346800      -0.03367300       0.22358200
12
Lattice="4.286993967740049 0.0 0.0 0.0 9.655145111327771 0.0 0.0 0.0 8.78359375675428" Properties=species:S:1:pos:R:3:initial_magmoms:R:1:castep_labels:S:1:forces:R:3 n_minim_iter=6 energy=-61.2398424458 stress="0.0020774737994538666 -0.0 -0.0 -0.0 0.0037354095628549092 -0.0 -0.0 -0.0 0.00267895926279899" free_energy=-61.2398424458 pbc="T T T"
P        4.11389912       1.57092612       5.53730479       0.00000000 NULL       0.07853500       0.13484900       0.00002900
P        4.11389912       8.08421899       3.24628897       0.00000000 NULL       0.07853500      -0.13484900      -0.00002900
P        4.11389912       1.57092612       3.24628897       0.00000000 NULL       0.07853500       0.13484900      -0.00002900
P        4.11389912       8.08421899       5.53730479       0.00000000 NULL       0.07853500      -0.13484900       0.00002900
P        1.08446372       3.48501325       5.52612840       0.00000000 NULL      -0.05224300       0.03758500      -0.11611100
P        1.08446372       6.17013186       3.25746535       0.00000000 NULL      -0.05224300      -0.03758500       0.11611100
P        1.08446372       3.48501325       3.25746535       0.00000000 NULL      -0.05224300       0.03758500       0.11611100
P        1.08446372       6.17013186       5.52612840       0.00000000 NULL      -0.05224300      -0.03758500      -0.11611100
P        3.15391509       6.29020909       6.39745091       0.00000000 NULL      -0.02629200      -0.02975100       0.14847300
P        3.15391509       3.36493602       2.38614284       0.00000000 NULL      -0.02629200       0.02975100      -0.14847300
P        3.15391509       6.29020909       2.38614284       0.00000000 NULL      -0.02629200      -0.02975100      -0.14847300
P        3.15391509       3.36493602       6.39745091       0.00000000 NULL      -0.02629200       0.02975100       0.14847300
12
Lattice="4.258369748409882 0.0 0.0 0.0 9.511040388573802 0.0 0.0 0.0 8.656636907169451" Properties=species:S:1:pos:R:3:initial_magmoms:R:1:castep_labels:S:1:forces:R:3 n_minim_iter=7 energy=-61.290806552438 stress="0.0009164961938543638 -0.0 0.0 -0.0 6.508711649630156e-05 0.0 0.0 0.0 0.0006519549995058988" free_energy=-61.290806552438 pbc="T T T"
P        4.09589367       1.55283179       5.45335294       0.00000000 NULL      -0.01644200       0.12710300       0.22036500
P        4.09589367       7.95820860       3.20328397       0.00000000 NULL      -0.01644200      -0.12710300      -0.22036500
P        4.09589367       1.55283179       3.20328397       0.00000000 NULL      -0.01644200       0.12710300      -0.22036500
P        4.09589367       7.95820860       5.45335294       0.00000000 NULL      -0.01644200      -0.12710300       0.22036500
P        1.08878112       3.47215688       5.46008183       0.00000000 NULL      -0.07387300      -0.05074300       0.01181200
P        1.08878112       6.03888351       3.19655507       0.00000000 NULL      -0.07387300       0.05074300      -0.01181200
P        1.08878112       3.47215688       3.19655507       0.00000000 NULL      -0.07387300      -0.05074300      -0.01181200
P        1.08878112       6.03888351       5.46008183       0.00000000 NULL      -0.07387300       0.05074300       0.01181200
P        3.11183506       6.17791024       6.37817368       0.00000000 NULL       0.09031500      -0.01578000       0.07285700
P        3.11183506       3.33313015       2.27846323       0.00000000 NULL       0.09031500       0.01578000      -0.07285700
P        3.11183506       6.17791024       2.27846323       0.00000000 NULL       0.09031500      -0.01578000      -0.07285700
P        3.11183506       3.33313015       6.37817368       0.00000000 NULL       0.09031500       0.01578000       0.07285700
12
Lattice="4.24898558479056 0.0 0.0 0.0 9.608498885258463 0.0 0.0 0.0 8.224473076257725" Properties=species:S:1:pos:R:3:initial_magmoms:R:1:castep_labels:S:1:forces:R:3 n_minim_iter=8 energy=-61.368590188015 stress="0.0018196089551787366 -0.0 -0.0 -0.0 0.00039842103837083276 0.0 -0.0 0.0 -0.003017909814790698" free_energy=-61.368590188015 pbc="T T T"
P        4.09398412       1.60777921       5.22460419       0.00000000 NULL      -0.06460800      -0.00390100       0.41255800
P        4.09398412       8.00071967       2.99986889       0.00000000 NULL      -0.06460800       0.00390100      -0.41255800
P        4.09398412       1.60777921       2.99986889       0.00000000 NULL      -0.06460800      -0.00390100      -0.41255800
P        4.09398412       8.00071967       5.22460419       0.00000000 NULL      -0.06460800       0.00390100       0.41255800
P        1.07110512       3.52821874       5.23463865       0.00000000 NULL       0.05819600      -0.03742600       0.19506500
P        1.07110512       6.08028014       2.98983443       0.00000000 NULL       0.05819600       0.03742600      -0.19506500
P        1.07110512       3.52821874       2.98983443       0.00000000 NULL       0.05819600      -0.03742600      -0.19506500
P        1.07110512       6.08028014       5.23463865       0.00000000 NULL       0.05819600       0.03742600       0.19506500
P        3.11313760       6.21366593       6.16791099       0.00000000 NULL       0.00641100       0.01207800       0.00531700
P        3.11313760       3.39483296       2.05656209       0.00000000 NULL       0.00641100      -0.01207800      -0.00531700
P        3.11313760       6.21366593       2.05656209       0.00000000 NULL       0.00641100       0.01207800      -0.00531700
P        3.11313760       3.39483296       6.16791099       0.00000000 NULL       0.00641100      -0.01207800       0.00531700
12
Lattice="4.270837209913264 0.0 0.0 0.0 9.563517346364701 0.0 0.0 0.0 7.786164868441235" Properties=species:S:1:pos:R:3:initial_magmoms:R:1:castep_labels:S:1:forces:R:3 n_minim_iter=9 energy=-61.419088025836 stress="-0.0027386969388576874 0.0 0.0 0.0 -0.004202096140170009 -0.0 0.0 -0.0 -0.011091162888890678" free_energy=-61.419088025836 pbc="T T T"
P        4.10323989       1.60834067       4.99628875       0.00000000 NULL       0.01778200      -0.12802800       0.47758300
P        4.10323989       7.95517668       2.78987612       0.00000000 NULL       0.01778200       0.12802800      -0.47758300
P        4.10323989       1.60834067       2.78987612       0.00000000 NULL       0.01778200      -0.12802800      -0.47758300
P        4.10323989       7.95517668       4.99628875       0.00000000 NULL       0.01778200       0.12802800       0.47758300
P        1.09026783       3.52583073       5.00087954       0.00000000 NULL       0.02655500      -0.11732500       0.37598700
P        1.09026783       6.03768662       2.78528533       0.00000000 NULL       0.02655500       0.11732500      -0.37598700
P        1.09026783       3.52583073       2.78528533       0.00000000 NULL       0.02655500      -0.11732500      -0.37598700
P        1.09026783       6.03768662       5.00087954       0.00000000 NULL       0.02655500       0.11732500       0.37598700
P        3.12729190       6.18545554       5.90942666       0.00000000 NULL      -0.04433700      -0.11152900       0.11437900
P        3.12729190       3.37806180       1.87673821       0.00000000 NULL      -0.04433700       0.11152900      -0.11437900
P        3.12729190       6.18545554       1.87673821       0.00000000 NULL      -0.04433700      -0.11152900      -0.11437900
P        3.12729190       3.37806180       5.90942666       0.00000000 NULL      -0.04433700       0.11152900       0.11437900
12
Lattice="4.263642409402381 0.0 0.0 0.0 9.60553186349954 0.0 0.0 0.0 7.695513921543793" Properties=species:S:1:pos:R:3:initial_magmoms:R:1:castep_labels:S:1:forces:R:3 n_minim_iter=10 energy=-61.440172532126 stress="-0.003474038830015155 0.0 -0.0 0.0 -0.0031185757099799027 -0.0 -0.0 -0.0 -0.01138011863083136" free_energy=-61.440172532126 pbc="T T T"
P        4.09971814       1.62661679       4.95532756       0.00000000 NULL       0.00493800      -0.13884500       0.44588100
P        4.09971814       7.97891507       2.74018636       0.00000000 NULL       0.00493800       0.13884500      -0.44588100
P        4.09971814       1.62661679       2.74018636       0.00000000 NULL       0.00493800      -0.13884500      -0.44588100
P        4.09971814       7.97891507       4.95532756       0.00000000 NULL       0.00493800       0.13884500       0.44588100
P        1.09048256       3.53106789       4.95548325       0.00000000 NULL       0.02186200      -0.04970900       0.36771500
P        1.09048256       6.07446398       2.74003067       0.00000000 NULL       0.02186200       0.04970900      -0.36771500
P        1.09048256       3.53106789       2.74003067       0.00000000 NULL       0.02186200      -0.04970900      -0.36771500
P        1.09048256       6.07446398       4.95548325       0.00000000 NULL       0.02186200       0.04970900       0.36771500
P        3.11658121       6.21172644       5.87500793       0.00000000 NULL      -0.02680000      -0.08876800       0.02866200
P        3.11658121       3.39380543       1.82050599       0.00000000 NULL      -0.02680000       0.08876800      -0.02866200
P        3.11658121       6.21172644       1.82050599       0.00000000 NULL      -0.02680000      -0.08876800      -0.02866200
P        3.11658121       3.39380543       5.87500793       0.00000000 NULL      -0.02680000       0.08876800       0.02866200
12
Lattice="4.274133723390865 0.0 0.0 0.0 9.680735737832967 0.0 0.0 0.0 7.749180088833241" Properties=species:S:1:pos:R:3:initial_magmoms:R:1:castep_labels:S:1:forces:R:3 n_minim_iter=11 energy=-61.48458113997 stress="-8.869871590483411e-05 0.0 -0.0 0.0 7.341658834035846e-05 -0.0 -0.0 -0.0 0.0008970297000192822" free_energy=-61.48458113997 pbc="T T T"
P        4.12491340       1.65069244       5.02077816       0.00000000 NULL      -0.06184700      -0.06482800      -0.01849700
P        4.12491340       8.03004330       2.72840193       0.00000000 NULL      -0.06184700       0.06482800       0.01849700
P        4.12491340       1.65069244       2.72840193       0.00000000 NULL      -0.06184700      -0.06482800       0.01849700
P        4.12491340       8.03004330       5.02077816       0.00000000 NULL      -0.06184700       0.06482800      -0.01849700
P        1.07501009       3.55360154       5.00411445       0.00000000 NULL       0.08813200      -0.03708300       0.05245100
P        1.07501009       6.12713420       2.74506564       0.00000000 NULL       0.08813200       0.03708300      -0.05245100
P        1.07501009       3.55360154       2.74506564       0.00000000 NULL       0.08813200      -0.03708300      -0.05245100
P        1.07501009       6.12713420       5.00411445       0.00000000 NULL       0.08813200       0.03708300       0.05245100
P        3.12729794       6.24922044       5.91502501       0.00000000 NULL      -0.02628500      -0.00521900      -0.00915900
P        3.12729794       3.43151529       1.83415508       0.00000000 NULL      -0.02628500       0.00521900       0.00915900
P        3.12729794       6.24922044       1.83415508       0.00000000 NULL      -0.02628500      -0.00521900       0.00915900
P        3.12729794       3.43151529       5.91502501       0.00000000 NULL      -0.02628500       0.00521900      -0.00915900
12
Lattice="4.3808781130207555 0.0 0.0 0.0 9.5205783336045 0.0 0.0 0.0 7.629037938246269" Properties=species:S:1:pos:R:3:initial_magmoms:R:1:castep_labels:S:1:forces:R:3 n_minim_iter=12 energy=-61.508405426671 stress="-0.0034473443106444665 -0.0 0.0 -0.0 0.001275127383334293 0.0 0.0 0.0 0.0025175076198890142" free_energy=-61.508405426671 pbc="T T T"
P        4.18051898       1.62051139       4.95795854       0.00000000 NULL       0.10111400      -0.00244100      -0.04272200
P        4.18051898       7.90006694       2.67107940       0.00000000 NULL       0.10111400       0.00244100       0.04272200
P        4.18051898       1.62051139       2.67107940       0.00000000 NULL       0.10111400      -0.00244100       0.04272200
P        4.18051898       7.90006694       4.95795854       0.00000000 NULL       0.10111400       0.00244100      -0.04272200
P        1.16149186       3.44144248       4.93715779       0.00000000 NULL      -0.04046200       0.11425400       0.01518900
P        1.16149186       6.07913585       2.69188015       0.00000000 NULL      -0.04046200      -0.11425400      -0.01518900
P        1.16149186       3.44144248       2.69188015       0.00000000 NULL      -0.04046200       0.11425400      -0.01518900
P        1.16149186       6.07913585       4.93715779       0.00000000 NULL      -0.04046200      -0.11425400       0.01518900
P        3.19317930       6.10228758       5.81641714       0.00000000 NULL      -0.06065200       0.01057200       0.01427900
P        3.19317930       3.41829076       1.81262080       0.00000000 NULL      -0.06065200      -0.01057200      -0.01427900
P        3.19317930       6.10228758       1.81262080       0.00000000 NULL      -0.06065200       0.01057200      -0.01427900
P        3.19317930       3.41829076       5.81641714       0.00000000 NULL      -0.06065200      -0.01057200       0.01427900
12
Lattice="4.664646104807042 0.0 0.0 0.0 9.290728119721898 0.0 0.0 0.0 7.175735522844446" Properties=species:S:1:pos:R:3:initial_magmoms:R:1:castep_labels:S:1:forces:R:3 n_minim_iter=13 energy=-61.564802145759 stress="-0.008704530378324294 0.0 -0.0 0.0 0.006090068188739497 -0.0 -0.0 -0.0 0.001917250834876261" free_energy=-61.564802145759 pbc="T T T"
P        4.41377739       1.60410040       4.71367652       0.00000000 NULL       0.29094900       0.26876400      -0.06775500
P        4.41377739       7.68662772       2.46205900       0.00000000 NULL       0.29094900      -0.26876400       0.06775500
P        4.41377739       1.60410040       2.46205900       0.00000000 NULL       0.29094900       0.26876400       0.06775500
P        4.41377739       7.68662772       4.71367652       0.00000000 NULL       0.29094900      -0.26876400      -0.06775500
P        1.33344804       3.31189383       4.69707168       0.00000000 NULL      -0.38317700       0.15310600      -0.06542100
P        1.33344804       5.97883429       2.47866385       0.00000000 NULL      -0.38317700      -0.15310600       0.06542100
P        1.33344804       3.31189383       2.47866385       0.00000000 NULL      -0.38317700       0.15310600       0.06542100
P        1.33344804       5.97883429       4.69707168       0.00000000 NULL      -0.38317700      -0.15310600      -0.06542100
P        3.34082586       5.87407571       5.46061888       0.00000000 NULL       0.09222800       0.11128700       0.14646500
P        3.34082586       3.41665241       1.71511664       0.00000000 NULL       0.09222800      -0.11128700      -0.14646500
P        3.34082586       5.87407571       1.71511664       0.00000000 NULL       0.09222800       0.11128700      -0.14646500
P        3.34082586       3.41665241       5.46061888       0.00000000 NULL       0.09222800      -0.11128700       0.14646500
12
Lattice="5.301047918477051 0.0 0.0 0.0 8.941433844988644 0.0 0.0 0.0 6.078709893900179" Properties=species:S:1:pos:R:3:initial_magmoms:R:1:castep_labels:S:1:forces:R:3 n_minim_iter=14 energy=-61.889479619239 stress="-0.004195233620045689 0.0 -0.0 0.0 -0.004218730399038623 -0.0 -0.0 -0.0 -0.005804572091424373" free_energy=-61.889479619239 pbc="T T T"
P        5.03920040       1.60609602       4.10770472       0.00000000 NULL       0.11669400       0.41750300       0.79694100
P        5.03920040       7.33533783       1.97100517       0.00000000 NULL       0.11669400      -0.41750300      -0.79694100
P        5.03920040       1.60609602       1.97100517       0.00000000 NULL       0.11669400       0.41750300      -0.79694100
P        5.03920040       7.33533783       4.10770472       0.00000000 NULL       0.11669400      -0.41750300       0.79694100
P        1.59272218       3.19874842       4.12320536       0.00000000 NULL      -0.49609400       0.08959100       0.80710500
P        1.59272218       5.74268542       1.95550453       0.00000000 NULL      -0.49609400      -0.08959100      -0.80710500
P        1.59272218       3.19874842       1.95550453       0.00000000 NULL      -0.49609400       0.08959100      -0.80710500
P        1.59272218       5.74268542       4.12320536       0.00000000 NULL      -0.49609400      -0.08959100       0.80710500
P        3.69602035       5.54185690       4.66386802       0.00000000 NULL       0.37940100       1.07044500       0.24905100
P        3.69602035       3.39957694       1.41484187       0.00000000 NULL       0.37940100      -1.07044500      -0.24905100
P        3.69602035       5.54185690       1.41484187       0.00000000 NULL       0.37940100       1.07044500      -0.24905100
P        3.69602035       3.39957694       4.66386802       0.00000000 NULL       0.37940100      -1.07044500       0.24905100
12
Lattice="5.524337041480163 0.0 0.0 0.0 8.859217312211221 0.0 0.0 0.0 5.723972171671966" Properties=species:S:1:pos:R:3:initial_magmoms:R:1:castep_labels:S:1:forces:R:3 n_minim_iter=15 energy=-61.982136008911 stress="-0.004360519610340568 0.0 -0.0 0.0 -0.016489478659760633 0.0 -0.0 0.0 -0.01439826405264196" free_energy=-61.982136008911 pbc="T T T"
P        5.27091425       1.61037655       3.90874248       0.00000000 NULL       0.09034000       0.38299900       1.26419800
P        5.27091425       7.24884077       1.81522970       0.00000000 NULL       0.09034000      -0.38299900      -1.26419800
P        5.27091425       1.61037655       1.81522970       0.00000000 NULL       0.09034000       0.38299900      -1.26419800
P        5.27091425       7.24884077       3.90874248       0.00000000 NULL       0.09034000      -0.38299900       1.26419800
P        1.67531318       3.17778986       3.93331164       0.00000000 NULL      -0.64790100       0.04759100       1.15799300
P        1.67531318       5.68142745       1.79066053       0.00000000 NULL      -0.64790100      -0.04759100      -1.15799300
P        1.67531318       3.17778986       1.79066053       0.00000000 NULL      -0.64790100       0.04759100      -1.15799300
P        1.67531318       5.68142745       3.93331164       0.00000000 NULL      -0.64790100      -0.04759100       1.15799300
P        3.81674635       5.47265026       4.40882348       0.00000000 NULL       0.55756200       1.92583200       0.13365100
P        3.81674635       3.38656705       1.31514869       0.00000000 NULL       0.55756200      -1.92583200      -0.13365100
P        3.81674635       5.47265026       1.31514869       0.00000000 NULL       0.55756200       1.92583200      -0.13365100
P        3.81674635       3.38656705       4.40882348       0.00000000 NULL       0.55756200      -1.92583200       0.13365100
12
Lattice="5.7479872154212215 0.0 0.0 0.0 8.84896942762546 0.0 0.0 0.0 5.409451702556215" Properties=species:S:1:pos:R:3:initial_magmoms:R:1:castep_labels:S:1:forces:R:3 n_minim_iter=16 energy=-62.2482000397 stress="-0.0009496445200477736 -0.0 0.0 -0.0 -0.012036886943629763 0.0 0.0 0.0 -0.03097031780021698" free_energy=-62.2482000397 pbc="T T T"
P        5.55216218       1.62656872       3.72658558       0.00000000 NULL       0.01841500       0.40754700       1.97529200
P        5.55216218       7.22240071       1.68286612       0.00000000 NULL       0.01841500      -0.40754700      -1.97529200
P        5.55216218       1.62656872       1.68286612       0.00000000 NULL       0.01841500       0.40754700      -1.97529200
P        5.55216218       7.22240071       3.72658558       0.00000000 NULL       0.01841500      -0.40754700       1.97529200
P        1.72534755       3.19784709       3.76276186       0.00000000 NULL      -0.71415600       0.02538300       1.63249300
P        1.72534755       5.65112234       1.64668984       0.00000000 NULL      -0.71415600      -0.02538300      -1.63249300
P        1.72534755       3.19784709       1.64668984       0.00000000 NULL      -0.71415600       0.02538300      -1.63249300
P        1.72534755       5.65112234       3.76276186       0.00000000 NULL      -0.71415600      -0.02538300       1.63249300
P        3.92119801       5.48487829       4.17150304       0.00000000 NULL       0.69574100       1.70811900       0.04899500
P        3.92119801       3.36409114       1.23794866       0.00000000 NULL       0.69574100      -1.70811900      -0.04899500
P        3.92119801       5.48487829       1.23794866       0.00000000 NULL       0.69574100       1.70811900      -0.04899500
P        3.92119801       3.36409114       4.17150304       0.00000000 NULL       0.69574100      -1.70811900       0.04899500
12
Lattice="5.808547553173079 0.0 0.0 0.0 8.826280022470918 0.0 0.0 0.0 5.270645473235015" Properties=species:S:1:pos:R:3:initial_magmoms:R:1:castep_labels:S:1:forces:R:3 n_minim_iter=17 energy=-62.477938785123 stress="0.0033961876849109432 0.0 0.0 0.0 -0.018402770514064123 0.0 0.0 0.0 -0.0412793530913428" free_energy=-62.477938785123 pbc="T T T"
P        5.65138589       1.62426232       3.64944093       0.00000000 NULL       0.00731900       0.46912700       2.30863500
P        5.65138589       7.20201770       1.62120454       0.00000000 NULL       0.00731900      -0.46912700      -2.30863500
P        5.65138589       1.62426232       1.62120454       0.00000000 NULL       0.00731900       0.46912700      -2.30863500
P        5.65138589       7.20201770       3.64944093       0.00000000 NULL       0.00731900      -0.46912700       2.30863500
P        1.68677872       3.23589534       3.69412125       0.00000000 NULL      -0.35077600      -0.27568800       1.77283800
P        1.68677872       5.59038468       1.57652423       0.00000000 NULL      -0.35077600       0.27568800      -1.77283800
P        1.68677872       3.23589534       1.57652423       0.00000000 NULL      -0.35077600      -0.27568800      -1.77283800
P        1.68677872       5.59038468       3.69412125       0.00000000 NULL      -0.35077600       0.27568800       1.77283800
P        3.97853118       5.47200255       4.07856389       0.00000000 NULL       0.34345700       1.88959300      -0.11952500
P        3.97853118       3.35427747       1.19208159       0.00000000 NULL       0.34345700      -1.88959300       0.11952500
P        3.97853118       5.47200255       1.19208159       0.00000000 NULL       0.34345700       1.88959300       0.11952500
P        3.97853118       3.35427747       4.07856389       0.00000000 NULL       0.34345700      -1.88959300      -0.11952500
12
Lattice="5.929918778573471 0.0 0.0 0.0 8.89883862679236 0.0 0.0 0.0 5.170886838845537" Properties=species:S:1:pos:R:3:initial_magmoms:R:1:castep_labels:S:1:forces:R:3 n_minim_iter=18 energy=-62.97848081826 stress="0.006048128435023376 -0.0 -0.0 -0.0 -0.008644801153860609 -0.0 -0.0 -0.0 -0.03450290302907301" free_energy=-62.97848081826 pbc="T T T"
P        5.88586398       1.69519283       3.61554365       0.00000000 NULL      -0.22781700       0.41220600       1.76375300
P        5.88586398       7.20364580       1.55534319       0.00000000 NULL      -0.22781700      -0.41220600      -1.76375300
P        5.88586398       1.69519283       1.55534319       0.00000000 NULL      -0.22781700       0.41220600      -1.76375300
P        5.88586398       7.20364580       3.61554365       0.00000000 NULL      -0.22781700      -0.41220600       1.76375300
P        1.66340286       3.30607362       3.66265154       0.00000000 NULL      -0.19480200      -0.51853600       1.44200200
P        1.66340286       5.59276501       1.50823530       0.00000000 NULL      -0.19480200       0.51853600      -1.44200200
P        1.66340286       3.30607362       1.50823530       0.00000000 NULL      -0.19480200      -0.51853600      -1.44200200
P        1.66340286       5.59276501       3.66265154       0.00000000 NULL      -0.19480200       0.51853600       1.44200200
P        4.00389252       5.55190459       4.01492804       0.00000000 NULL       0.42261900       1.00309900      -0.25253700
P        4.00389252       3.34693404       1.15595880       0.00000000 NULL       0.42261900      -1.00309900       0.25253700
P        4.00389252       5.55190459       1.15595880       0.00000000 NULL       0.42261900       1.00309900       0.25253700
P        4.00389252       3.34693404       4.01492804       0.00000000 NULL       0.42261900      -1.00309900      -0.25253700
12
Lattice="5.990196988543206 0.0 0.0 0.0 9.015676372692287 0.0 0.0 0.0 5.2532636903927985" Properties=species:S:1:pos:R:3:initial_magmoms:R:1:castep_labels:S:1:forces:R:3 n_minim_iter=19 energy=-63.470677127873 stress="0.010724585483949308 -0.0 0.0 -0.0 0.009790273433443512 0.0 0.0 0.0 0.0036354879541712778" free_energy=-63.470677127873 pbc="T T T"
P        5.93701230       1.77964008       3.70031359       0.00000000 NULL      -0.35275300       0.30679000       0.86702600
P        5.93701230       7.23603629       1.55295010       0.00000000 NULL      -0.35275300      -0.30679000      -0.86702600
P        5.93701230       1.77964008       1.55295010       0.00000000 NULL      -0.35275300       0.30679000      -0.86702600
P        5.93701230       7.23603629       3.70031359       0.00000000 NULL      -0.35275300      -0.30679000       0.86702600
P        1.64352147       3.30561725       3.73718414       0.00000000 NULL       0.07622600       0.17825500       0.71170200
P        1.64352147       5.71005912       1.51607955       0.00000000 NULL       0.07622600      -0.17825500      -0.71170200
P        1.64352147       3.30561725       1.51607955       0.00000000 NULL       0.07622600       0.17825500      -0.71170200
P        1.64352147       5.71005912       3.73718414       0.00000000 NULL       0.07622600      -0.17825500       0.71170200
P        4.09006332       5.64633259       4.08313743       0.00000000 NULL       0.27652700       0.48110200      -0.15856500
P        4.09006332       3.36934378       1.17012626       0.00000000 NULL       0.27652700      -0.48110200       0.15856500
P        4.09006332       5.64633259       1.17012626       0.00000000 NULL       0.27652700       0.48110200       0.15856500
P        4.09006332       3.36934378       4.08313743       0.00000000 NULL       0.27652700      -0.48110200      -0.15856500
12
Lattice="6.117262595797538 0.0 0.0 0.0 8.94737937400553 0.0 0.0 0.0 5.1483731236781685" Properties=species:S:1:pos:R:3:initial_magmoms:R:1:castep_labels:S:1:forces:R:3 n_minim_iter=20 energy=-63.719138895404 stress="0.018085313005798416 -0.0 -0.0 -0.0 0.016083491225101543 -0.0 -0.0 -0.0 -0.005281517668382237" free_energy=-63.719138895404 pbc="T T T"
P        6.02146004       1.79846176       3.66492531       0.00000000 NULL      -0.15761400       0.41202300       0.46216500
P        6.02146004       7.14891762       1.48344782       0.00000000 NULL      -0.15761400      -0.41202300      -0.46216500
P        6.02146004       1.79846176       1.48344782       0.00000000 NULL      -0.15761400       0.41202300      -0.46216500
P        6.02146004       7.14891762       3.66492531       0.00000000 NULL      -0.15761400      -0.41202300       0.46216500
P        1.69341372       3.26890507       3.69397329       0.00000000 NULL      -0.14292100       0.20147900       0.53970000
P        1.69341372       5.67847430       1.45439983       0.00000000 NULL      -0.14292100      -0.20147900      -0.53970000
P        1.69341372       3.26890507       1.45439983       0.00000000 NULL      -0.14292100       0.20147900      -0.53970000
P        1.69341372       5.67847430       3.69397329       0.00000000 NULL      -0.14292100      -0.20147900       0.53970000
P        4.20328291       5.62229282       4.01826988       0.00000000 NULL       0.30053400       0.38575300      -0.47058700
P        4.20328291       3.32508655       1.13010325       0.00000000 NULL       0.30053400      -0.38575300       0.47058700
P        4.20328291       5.62229282       1.13010325       0.00000000 NULL       0.30053400       0.38575300       0.47058700
P        4.20328291       3.32508655       4.01826988       0.00000000 NULL       0.30053400      -0.38575300      -0.47058700
12
Lattice="6.074936259172468 0.0 0.0 0.0 8.882912408895233 0.0 0.0 0.0 5.175611700637437" Properties=species:S:1:pos:R:3:initial_magmoms:R:1:castep_labels:S:1:forces:R:3 n_minim_iter=21 energy=-63.869552927119 stress="0.010563561024176528 0.0 0.0 0.0 0.012626597652921977 -0.0 0.0 -0.0 0.0019071067355125495" free_energy=-63.869552927119 pbc="T T T"
P        5.94706835       1.80067161       3.69340125       0.00000000 NULL       0.01989500       0.31467300       0.27274900
P        5.94706835       7.08224080       1.48221045       0.00000000 NULL       0.01989500      -0.31467300      -0.27274900
P        5.94706835       1.80067161       1.48221045       0.00000000 NULL       0.01989500       0.31467300      -0.27274900
P        5.94706835       7.08224080       3.69340125       0.00000000 NULL       0.01989500      -0.31467300       0.27274900
P        1.68222042       3.25909368       3.72124376       0.00000000 NULL      -0.16836200       0.05603900       0.40284600
P        1.68222042       5.62381873       1.45436795       0.00000000 NULL      -0.16836200      -0.05603900      -0.40284600
P        1.68222042       3.25909368       1.45436795       0.00000000 NULL      -0.16836200       0.05603900      -0.40284600
P        1.68222042       5.62381873       3.72124376       0.00000000 NULL      -0.16836200      -0.05603900       0.40284600
P        4.20640425       5.60149267       4.05438423       0.00000000 NULL       0.14846600       0.21120500      -0.57934000
P        4.20640425       3.28141974       1.12122747       0.00000000 NULL       0.14846600      -0.21120500       0.57934000
P        4.20640425       5.60149267       1.12122747       0.00000000 NULL       0.14846600       0.21120500       0.57934000
P        4.20640425       3.28141974       4.05438423       0.00000000 NULL       0.14846600      -0.21120500      -0.57934000
