8
Lattice="4.35688 1.2816133472599497e-15 4.186277697925067e-16 -2.0581237614275865 4.6291127900546085 6.037678563790364e-16 -0.37863665938651897 -2.0116389458654984 8.339383062106322" Properties=species:S:1:pos:R:3:initial_magmoms:R:1:castep_labels:S:1 n_minim_iter=1 pbc="T T T"
P       -0.73657829       2.08506912       7.49323423       0.00000000 NULL
P        2.65082474       1.83105255       5.49171725       0.00000000 NULL
P        0.87108290       2.50509439       4.78661991       0.00000000 NULL
P       -0.97645477       2.14468141       1.53884467       0.00000000 NULL
P        3.56591277      -0.19861659       4.50023882       0.00000000 NULL
P        1.57069395       0.22508799       4.56183184       0.00000000 NULL
P        2.79926409       0.88027342       0.08633930       0.00000000 NULL
P        0.50049859      -0.40636970       2.97601476       0.00000000 NULL
8
Lattice="4.364017730821317 0.00025705354553027767 0.0004531901293323849 -2.0612224016358742 4.634364747897404 0.00041075713354799844 -0.3785082141203374 -2.0128707082103765 8.345825121656153" Properties=species:S:1:pos:R:3:initial_magmoms:R:1:castep_labels:S:1 n_minim_iter=2 pbc="T T T"
P       -0.73697150       2.08834670       7.49956657       0.00000000 NULL
P        2.65610487       1.83413462       5.49686136       0.00000000 NULL
P        0.87296923       2.50863634       4.79091966       0.00000000 NULL
P       -0.97774041       2.14733576       1.54033101       0.00000000 NULL
P        3.57228023      -0.19789428       4.50435683       0.00000000 NULL
P        1.57359677       0.22598628       4.56584201       0.00000000 NULL
P        2.80395809       0.88152735       0.08674548       0.00000000 NULL
P        0.50163582      -0.40642869       2.97796227       0.00000000 NULL
8
Lattice="4.600642145207555 0.008615294158197666 0.015059985525802322 -2.164119679334535 4.807004550346169 0.013462044385424268 -0.37497283513511753 -2.0543932085468377 8.55431479494908" Properties=species:S:1:pos:R:3:initial_magmoms:R:1:castep_labels:S:1 n_minim_iter=3 pbc="T T T"
P       -0.75092058       2.19506337       7.70437078       0.00000000 NULL
P        2.83086151       1.93481847       5.66334529       0.00000000 NULL
P        0.93483675       2.62436055       4.92984920       0.00000000 NULL
P       -1.02057975       2.23434990       1.58830890       0.00000000 NULL
P        3.78300261      -0.17466938       4.63768343       0.00000000 NULL
P        1.66918732       0.25478980       4.69559697       0.00000000 NULL
P        2.95957805       0.92271411       0.09971293       0.00000000 NULL
P        0.53907229      -0.40879147       3.04049768       0.00000000 NULL
8
Lattice="4.671297592324514 0.00503418612280859 0.0009804993970113942 -2.2013011044816335 4.8584776746831135 -0.00048326147255620046 -0.40640887978543744 -2.112819438618781 8.554102539474103" Properties=species:S:1:pos:R:3:initial_magmoms:R:1:castep_labels:S:1 n_minim_iter=4 pbc="T T T"
P       -0.79121741       2.18316237       7.69062209       0.00000000 NULL
P        2.85937354       1.93026094       5.64315989       0.00000000 NULL
P        0.93116743       2.62854110       4.91089477       0.00000000 NULL
P       -1.04404653       2.24974693       1.57970289       0.00000000 NULL
P        3.82613343      -0.19795143       4.62368962       0.00000000 NULL
P        1.67607390       0.23291668       4.68545440       0.00000000 NULL
P        3.00534719       0.93094797       0.08462828       0.00000000 NULL
P        0.53931828      -0.42577409       3.02861657       0.00000000 NULL
8
Lattice="4.720912919151984 0.0014972422916358793 -0.020123631521216313 -2.228496573487251 4.893247662308299 -0.028533434624816337 -0.44948249199512463 -2.1953880518085285 8.507491914803477" Properties=species:S:1:pos:R:3:initial_magmoms:R:1:castep_labels:S:1 n_minim_iter=5 pbc="T T T"
P       -0.84162408       2.13502544       7.62244008       0.00000000 NULL
P        2.86714110       1.90001157       5.57606003       0.00000000 NULL
P        0.91783198       2.60629578       4.85043524       0.00000000 NULL
P       -1.06610238       2.25041421       1.55468753       0.00000000 NULL
P        3.84351199      -0.23802801       4.57521493       0.00000000 NULL
P        1.66811676       0.19167643       4.64328047       0.00000000 NULL
P        3.03833026       0.93643102       0.05989595       0.00000000 NULL
P        0.53198898      -0.45164526       2.99577771       0.00000000 NULL
8
Lattice="4.761277414919945 0.006346853187154578 -0.04370493129178785 -2.2424115153802573 4.915995212057465 -0.07825039145372065 -0.5003658387648928 -2.3163235632122507 8.422800460917612" Properties=species:S:1:pos:R:3:initial_magmoms:R:1:castep_labels:S:1 n_minim_iter=6 pbc="T T T"
P       -0.89475593       2.04290549       7.50421936       0.00000000 NULL
P        2.87274676       1.84844366       5.46719771       0.00000000 NULL
P        0.90870537       2.55927900       4.75040331       0.00000000 NULL
P       -1.08393384       2.23608453       1.51247311       0.00000000 NULL
P        3.84818987      -0.29419670       4.49995845       0.00000000 NULL
P        1.65523362       0.12714115       4.57678995       0.00000000 NULL
P        3.06880938       0.94687408       0.02500297       0.00000000 NULL
P        0.51906967      -0.48916411       2.94045510       0.00000000 NULL
8
Lattice="4.788163297199406 0.02875819469445135 -0.04339438341551743 -2.231300317815177 4.923818698678691 -0.12308227401266483 -0.5124556209844606 -2.4067723524744324 8.389149799254277" Properties=species:S:1:pos:R:3:initial_magmoms:R:1:castep_labels:S:1 n_minim_iter=7 pbc="T T T"
P       -0.89730028       1.97001266       7.44439683       0.00000000 NULL
P        2.90760058       1.82512623       5.41683559       0.00000000 NULL
P        0.93483994       2.53066433       4.69780807       0.00000000 NULL
P       -1.08046892       2.22173676       1.48691044       0.00000000 NULL
P        3.86546372      -0.32173483       4.47505209       0.00000000 NULL
P        1.66607212       0.08390698       4.55502201       0.00000000 NULL
P        3.09415414       0.96696819       0.00653155       0.00000000 NULL
P        0.51580256      -0.51399860       2.90721666       0.00000000 NULL
8
Lattice="4.789757788191264 0.035906318440061494 -0.044140735206153775 -2.22445876806902 4.918764968764417 -0.13980055292269686 -0.5173231615961617 -2.4374180336275897 8.375251281683509" Properties=species:S:1:pos:R:3:initial_magmoms:R:1:castep_labels:S:1 n_minim_iter=8 pbc="T T T"
P       -0.89840732       1.93883259       7.42036351       0.00000000 NULL
P        2.91335902       1.81111081       5.39577275       0.00000000 NULL
P        0.94110631       2.51471848       4.67661144       0.00000000 NULL
P       -1.07792229       2.21287880       1.47733594       0.00000000 NULL
P        3.86437392      -0.33321730       4.46394284       0.00000000 NULL
P        1.66589029       0.06697900       4.54489185       0.00000000 NULL
P        3.09745802       0.97180530      -0.00082836       0.00000000 NULL
P        0.51354506      -0.52282436       2.89589718       0.00000000 NULL
8
Lattice="4.799778856378729 0.05730718418611417 -0.04343946182020348 -2.206454502908687 4.908806233340705 -0.1859175255581095 -0.5267328702397994 -2.521826679069012 8.351576936634316" Properties=species:S:1:pos:R:3:initial_magmoms:R:1:castep_labels:S:1 n_minim_iter=9 pbc="T T T"
P       -0.89695179       1.85658206       7.36831940       0.00000000 NULL
P        2.93717953       1.77682460       5.34980204       0.00000000 NULL
P        0.96338159       2.47509479       4.62810723       0.00000000 NULL
P       -1.07000199       2.19101298       1.45438664       0.00000000 NULL
P        3.86893648      -0.36244488       4.44379303       0.00000000 NULL
P        1.67009198       0.02221459       4.52652733       0.00000000 NULL
P        3.11031940       0.98712862      -0.01935871       0.00000000 NULL
P        0.50960538      -0.54642614       2.87037732       0.00000000 NULL
8
Lattice="4.813889015506775 0.08109186827062863 -0.039887014528688876 -2.1878490945605003 4.900082052545438 -0.2362005920935616 -0.5321412362180443 -2.612547222455648 8.348377647121506" Properties=species:S:1:pos:R:3:initial_magmoms:R:1:castep_labels:S:1 n_minim_iter=10 pbc="T T T"
P       -0.89034008       1.77006631       7.33275712       0.00000000 NULL
P        2.96876828       1.74131848       5.31665894       0.00000000 NULL
P        0.99101299       2.43458442       4.58948358       0.00000000 NULL
P       -1.06007494       2.16926070       1.43465823       0.00000000 NULL
P        3.87994620      -0.39267852       4.43638368       0.00000000 NULL
P        1.67801699      -0.02479776       4.51969315       0.00000000 NULL
P        3.12560862       1.00437729      -0.03757822       0.00000000 NULL
P        0.50792735      -0.57135663       2.85254340       0.00000000 NULL
8
Lattice="4.821846991205755 0.10357047366828019 -0.03739819212957104 -2.167725175409657 4.882838140547456 -0.2916767943996599 -0.53844776199819 -2.7094444166549625 8.348112141503883" Properties=species:S:1:pos:R:3:initial_magmoms:R:1:castep_labels:S:1 n_minim_iter=11 pbc="T T T"
P       -0.88506847       1.67026936       7.29561122       0.00000000 NULL
P        2.99509921       1.69418664       5.28024701       0.00000000 NULL
P        1.01565195       2.38315701       4.54740230       0.00000000 NULL
P       -1.04927166       2.14168953       1.41377961       0.00000000 NULL
P        3.88499697      -0.42924590       4.42825740       0.00000000 NULL
P        1.68172986      -0.07843273       4.51203309       0.00000000 NULL
P        3.13588477       1.01926664      -0.05839678       0.00000000 NULL
P        0.50528881      -0.59897127       2.83603615       0.00000000 NULL
8
Lattice="4.834476701210185 0.12660721797975694 -0.03145788966862129 -2.149215099053772 4.870875684524401 -0.34788050003551857 -0.5388116061989432 -2.8071731907791255 8.367896403449889" Properties=species:S:1:pos:R:3:initial_magmoms:R:1:castep_labels:S:1 n_minim_iter=12 pbc="T T T"
P       -0.87432728       1.57399238       7.27755070       0.00000000 NULL
P        3.02959755       1.65060638       5.25962662       0.00000000 NULL
P        1.04521168       2.33587406       4.51810618       0.00000000 NULL
P       -1.03717945       2.11702571       1.39790292       0.00000000 NULL
P        3.89768349      -0.46461295       4.43386988       0.00000000 NULL
P        1.69000078      -0.13113485       4.51706245       0.00000000 NULL
P        3.14841617       1.03594307      -0.07785622       0.00000000 NULL
P        0.50540398      -0.62632529       2.82714837       0.00000000 NULL
8
Lattice="4.836826975129771 0.146265902646996 -0.028231751861310522 -2.1294383060209157 4.85214259278494 -0.40569613128696475 -0.541917516065719 -2.906186342023453 8.378280012298662" Properties=species:S:1:pos:R:3:initial_magmoms:R:1:castep_labels:S:1 n_minim_iter=13 pbc="T T T"
P       -0.86767201       1.46984984       7.24894630       0.00000000 NULL
P        3.05315947       1.59781772       5.22875744       0.00000000 NULL
P        1.06780364       2.28035362       4.48013704       0.00000000 NULL
P       -1.02503728       2.08779445       1.37999389       0.00000000 NULL
P        3.89930772      -0.50519981       4.43126032       0.00000000 NULL
P        1.69085122      -0.18832433       4.51449818       0.00000000 NULL
P        3.15282726       1.04954073      -0.10018440       0.00000000 NULL
P        0.50327808      -0.65499648       2.81532753       0.00000000 NULL
8
Lattice="4.846114486316722 0.16714268575682964 -0.021887642886653597 -2.111644348819769 4.840794395293059 -0.46162217929810795 -0.5402207025777553 -3.002707095371307 8.403010581080093" Properties=species:S:1:pos:R:3:initial_magmoms:R:1:castep_labels:S:1 n_minim_iter=14 pbc="T T T"
P       -0.85612765       1.37396509       7.23622838       0.00000000 NULL
P        3.08608356       1.55301956       5.21171356       0.00000000 NULL
P        1.09569280       2.23300887       4.45370241       0.00000000 NULL
P       -1.01190596       2.06295736       1.36709035       0.00000000 NULL
P        3.91005684      -0.54167798       4.43948357       0.00000000 NULL
P        1.69684853      -0.24173208       4.52218498       0.00000000 NULL
P        3.16111550       1.06602194      -0.12085601       0.00000000 NULL
P        0.50380954      -0.68197146       2.80904127       0.00000000 NULL
8
Lattice="4.84598867249892 0.18737755413161133 -0.02114496710708078 -2.090085704008182 4.820683472873067 -0.5167123467509934 -0.5481309855661979 -3.0984933398004717 8.4128317580094" Properties=species:S:1:pos:R:3:initial_magmoms:R:1:castep_labels:S:1 n_minim_iter=15 pbc="T T T"
P       -0.85248782       1.27104426       7.20903541       0.00000000 NULL
P        3.10594928       1.50174073       5.17981036       0.00000000 NULL
P        1.11516979       2.17879387       4.41565815       0.00000000 NULL
P       -0.99888154       2.03272353       1.35174873       0.00000000 NULL
P        3.90731188      -0.57998061       4.43417828       0.00000000 NULL
P        1.69290843      -0.29741010       4.51852832       0.00000000 NULL
P        3.16268797       1.08107422      -0.14576836       0.00000000 NULL
P        0.50008463      -0.70919664       2.79753259       0.00000000 NULL
8
Lattice="4.848450600051653 0.19380755116027013 -0.019532611430709897 -2.084416915817965 4.818106886338251 -0.5346244698759183 -0.5482276044428368 -3.1301491161119253 8.422423995567609" Properties=species:S:1:pos:R:3:initial_magmoms:R:1:castep_labels:S:1 n_minim_iter=16 pbc="T T T"
P       -0.84944282       1.24017882       7.20661303       0.00000000 NULL
P        3.11592631       1.48741470       5.17505571       0.00000000 NULL
P        1.12333672       2.16398999       4.40782450       0.00000000 NULL
P       -0.99445096       2.02473320       1.34852459       0.00000000 NULL
P        3.90995876      -0.59206749       4.43708579       0.00000000 NULL
P        1.69378904      -0.31489026       4.52178339       0.00000000 NULL
P        3.16448137       1.08687572      -0.15339143       0.00000000 NULL
P        0.49994682      -0.71788605       2.79602172       0.00000000 NULL
8
Lattice="4.849733244267363 0.20173747798421462 -0.018201069337179514 -2.0765974015905537 4.8136639857021954 -0.5590390406624032 -0.549451775449763 -3.1733853052896475 8.432827714511046" Properties=species:S:1:pos:R:3:initial_magmoms:R:1:castep_labels:S:1 n_minim_iter=17 pbc="T T T"
P       -0.84673040       1.19699460       7.20061273       0.00000000 NULL
P        3.12676370       1.46630516       5.16595687       0.00000000 NULL
P        1.13257635       2.14248266       4.39505026       0.00000000 NULL
P       -0.98866160       2.01306811       1.34358863       0.00000000 NULL
P        3.91100339      -0.60956263       4.43872838       0.00000000 NULL
P        1.69327997      -0.33941175       4.52423012       0.00000000 NULL
P        3.16534986       1.09416093      -0.16443946       0.00000000 NULL
P        0.49908864      -0.72992640       2.79302632       0.00000000 NULL
8
Lattice="4.8502072947496115 0.22639208945451084 -0.015562109372146445 -2.05062621975187 4.799620399465154 -0.6417057372697292 -0.5558252288122243 -3.321165161352444 8.467495956434005" Properties=species:S:1:pos:R:3:initial_magmoms:R:1:castep_labels:S:1 n_minim_iter=18 pbc="T T T"
P       -0.84107153       1.04917760       7.17968384       0.00000000 NULL
P        3.15813747       1.39257064       5.13285590       0.00000000 NULL
P        1.15975007       2.06843858       4.35017515       0.00000000 NULL
P       -0.96958349       1.97254824       1.32746886       0.00000000 NULL
P        3.90950110      -0.67148520       4.44194416       0.00000000 NULL
P        1.68778978      -0.42433422       4.53148460       0.00000000 NULL
P        3.16487165       1.11856707      -0.20414979       0.00000000 NULL
P        0.49473366      -0.77098944       2.78220625       0.00000000 NULL
8
Lattice="4.834276934070555 0.24604763814626693 -0.02021004675250382 -2.022217265250891 4.785300216737064 -0.7619845053831643 -0.5724125525309935 -3.5413237894055367 8.519101325073715" Properties=species:S:1:pos:R:3:initial_magmoms:R:1:castep_labels:S:1 n_minim_iter=19 pbc="T T T"
P       -0.85225804       0.82781611       7.15082443       0.00000000 NULL
P        3.17827139       1.27090521       5.07710824       0.00000000 NULL
P        1.17721869       1.95344238       4.27983731       0.00000000 NULL
P       -0.94652658       1.90899386       1.30962973       0.00000000 NULL
P        3.88599689      -0.77876516       4.43755939       0.00000000 NULL
P        1.66255019      -0.55901282       4.53982356       0.00000000 NULL
P        3.14680913       1.14839518      -0.27480276       0.00000000 NULL
P        0.48197326      -0.83260770       2.76326990       0.00000000 NULL
8
Lattice="4.803817980976963 0.2352812614455279 -0.010603128327113218 -2.0192680164714436 4.812209103473301 -0.8899746800950984 -0.54640616453762 -3.7722713676502457 8.597712247262418" Properties=species:S:1:pos:R:3:initial_magmoms:R:1:castep_labels:S:1 n_minim_iter=20 pbc="T T T"
P       -0.85447416       0.61535329       7.15634634       0.00000000 NULL
P        3.20540685       1.14642591       5.04994868       0.00000000 NULL
P        1.19285528       1.85197371       4.22774963       0.00000000 NULL
P       -0.91867173       1.84514748       1.31964168       0.00000000 NULL
P        3.86797333      -0.91620382       4.45380077       0.00000000 NULL
P        1.63984549      -0.71325419       4.57721512       0.00000000 NULL
P        3.10251356       1.18213273      -0.36500796       0.00000000 NULL
P        0.47387170      -0.89330777       2.74160626       0.00000000 NULL
8
Lattice="4.734943269581656 0.2189256989886947 -0.03969343301944306 -2.004110165732686 4.742188608782526 -0.9021065443805977 -0.5885499043615532 -3.783675855312162 8.469369546894193" Properties=species:S:1:pos:R:3:initial_magmoms:R:1:castep_labels:S:1 n_minim_iter=21 pbc="T T T"
P       -0.90317263       0.54017793       7.02680775       0.00000000 NULL
P        3.12421190       1.07542341       4.92872195       0.00000000 NULL
P        1.14059045       1.78242255       4.12578830       0.00000000 NULL
P       -0.92031607       1.79167266       1.29979618       0.00000000 NULL
P        3.78215636      -0.95325104       4.35119404       0.00000000 NULL
P        1.57898241      -0.75140499       4.49040138       0.00000000 NULL
P        3.05189125       1.16979599      -0.40262061       0.00000000 NULL
P        0.44909648      -0.90299876       2.68643808       0.00000000 NULL
8
Lattice="4.772326501292586 0.22395299265417834 -0.026463545443062637 -2.0164280188883774 4.78273790029823 -0.9107489846855017 -0.568796930062019 -3.8070766888439223 8.53270307679345" Properties=species:S:1:pos:R:3:initial_magmoms:R:1:castep_labels:S:1 n_minim_iter=22 pbc="T T T"
P       -0.88701982       0.55115355       7.08578990       0.00000000 NULL
P        3.17064420       1.09618086       4.97843473       0.00000000 NULL
P        1.16671924       1.80656335       4.16435400       0.00000000 NULL
P       -0.91770957       1.80393408       1.31725355       0.00000000 NULL
P        3.82678170      -0.95451814       4.39438289       0.00000000 NULL
P        1.60390920      -0.75464821       4.53395577       0.00000000 NULL
P        3.07468614       1.18830028      -0.40523495       0.00000000 NULL
P        0.45925091      -0.90548702       2.70316143       0.00000000 NULL
8
Lattice="4.766094816005935 0.22135855753053413 -0.028458847972451396 -2.0162408099800824 4.777883328594481 -0.9149919843583247 -0.5708766249080631 -3.8135508252483064 8.521973577407124" Properties=species:S:1:pos:R:3:initial_magmoms:R:1:castep_labels:S:1 n_minim_iter=23 pbc="T T T"
P       -0.89164680       0.53946017       7.07457817       0.00000000 NULL
P        3.16538982       1.08700015       4.96690930       0.00000000 NULL
P        1.16256999       1.79857963       4.15391526       0.00000000 NULL
P       -0.91703945       1.79526987       1.31851944       0.00000000 NULL
P        3.81996564      -0.96205163       4.38437583       0.00000000 NULL
P        1.59774553      -0.76301542       4.52768316       0.00000000 NULL
P        3.06881159       1.19083965      -0.41396774       0.00000000 NULL
P        0.45701693      -0.90782610       2.69564373       0.00000000 NULL
8
Lattice="4.755751980221758 0.2151580977053097 -0.031849815959845075 -2.0179428976651232 4.77112958074394 -0.9265954049450872 -0.5736054854095264 -3.8325935945087712 8.50462824592358" Properties=species:S:1:pos:R:3:initial_magmoms:R:1:castep_labels:S:1 n_minim_iter=24 pbc="T T T"
P       -0.90145861       0.51186853       7.05570954       0.00000000 NULL
P        3.15828261       1.06654734       4.94544682       0.00000000 NULL
P        1.15519601       1.78173327       4.13378811       0.00000000 NULL
P       -0.91542544       1.77457625       1.32486055       0.00000000 NULL
P        3.80901693      -0.98122214       4.36526542       0.00000000 NULL
P        1.58541747      -0.78465249       4.51859686       0.00000000 NULL
P        3.05721835       1.20031362      -0.43703638       0.00000000 NULL
P        0.45287624      -0.91412526       2.67906529       0.00000000 NULL
8
Lattice="4.692405987864819 0.17006694525258093 -0.058386712139766477 -2.035927817717133 4.728651150626881 -0.995562272796874 -0.5980746259881725 -3.947786431453996 8.398616560416642" Properties=species:S:1:pos:R:3:initial_magmoms:R:1:castep_labels:S:1 n_minim_iter=25 pbc="T T T"
P       -0.97416981       0.34119623       6.94928644       0.00000000 NULL
P        3.10850539       0.93469961       4.81222019       0.00000000 NULL
P        1.09789289       1.67549579       4.01320033       0.00000000 NULL
P       -0.91221788       1.62665956       1.38337671       0.00000000 NULL
P        3.73894308      -1.10365311       4.23524724       0.00000000 NULL
P        1.49818206      -0.92807164       4.46896357       0.00000000 NULL
P        2.98247961       1.28015775      -0.60689314       0.00000000 NULL
P        0.42725553      -0.95584788       2.56646349       0.00000000 NULL
