15
Lattice="6.5542099999999985 -9.702928555380289e-16 -7.801051020772714e-16 0.42224019772504695 6.704406920192501 -3.8348812181250145e-16 0.858399284584002 2.784590494478553 7.575695458450356" Properties=species:S:1:pos:R:3:initial_magmoms:R:1:castep_labels:S:1 n_minim_iter=1 pbc="T T T"
P        5.75523680       5.72329992       4.37009523       0.00000000 NULL
P        1.16644926       3.93190162       7.46666681       0.00000000 NULL
P        5.05515861       8.74758332       6.91043879       0.00000000 NULL
P        5.36428196       4.55744778       1.39098405       0.00000000 NULL
P        2.46430848       2.33596705       3.72402931       0.00000000 NULL
P        3.99932379       5.46846076       2.58070838       0.00000000 NULL
P        3.17910384       4.90841904       0.74333103       0.00000000 NULL
P        2.76051589       5.40372627       4.52799393       0.00000000 NULL
P        5.17545866       1.43476526       0.97270642       0.00000000 NULL
P        2.33329123       6.70162897       0.29912558       0.00000000 NULL
P        1.18102696       5.04245346       3.32769847       0.00000000 NULL
P        3.78535579       3.05450610       2.01935996       0.00000000 NULL
P        6.39730958       2.84829923       6.41460271       0.00000000 NULL
P        1.64602228       3.95747571       1.70333603       0.00000000 NULL
P        2.46288629       3.48789669       5.43078577       0.00000000 NULL
15
Lattice="6.57486623565611 0.0004212805730504697 -0.000657271820015898 0.4240018638018134 6.7207477606289325 -0.00022292829365381798 0.8605238885632435 2.791217304622071 7.594921041538608" Properties=species:S:1:pos:R:3:initial_magmoms:R:1:castep_labels:S:1 n_minim_iter=2 pbc="T T T"
P        5.77335784       5.73746595       4.38052276       0.00000000 NULL
P        1.16970206       3.94165412       7.48554000       0.00000000 NULL
P        5.07092149       8.76901250       6.92708012       0.00000000 NULL
P        5.38167154       4.56870163       1.39378546       0.00000000 NULL
P        2.47183347       2.34147334       3.73314973       0.00000000 NULL
P        4.01216760       5.48217218       2.58719124       0.00000000 NULL
P        3.18929888       4.92041070       0.74472079       0.00000000 NULL
P        2.76923767       5.41709650       4.53932821       0.00000000 NULL
P        5.19157393       1.43857458       0.97481043       0.00000000 NULL
P        2.34111048       6.71821833       0.29947934       0.00000000 NULL
P        1.18430881       5.05493218       3.33606355       0.00000000 NULL
P        3.79737931       3.06200221       2.02415364       0.00000000 NULL
P        6.41703574       2.85539649       6.43004349       0.00000000 NULL
P        1.65102646       3.96678323       1.70725730       0.00000000 NULL
P        2.47041695       3.49642787       5.44439689       0.00000000 NULL
15
Lattice="6.92761505744866 0.0075761149905597125 -0.01045516744952946 0.4540457064071815 7.000876623259639 -0.00529983032061144 0.8984379539884045 2.9032874525028376 7.921359722502679" Properties=species:S:1:pos:R:3:initial_magmoms:R:1:castep_labels:S:1 n_minim_iter=3 pbc="T T T"
P        6.08382360       5.97933072       4.55773629       0.00000000 NULL
P        1.22684365       4.10755817       7.80581545       0.00000000 NULL
P        5.34155789       9.13498776       7.20899165       0.00000000 NULL
P        5.67914315       4.76121006       1.44154894       0.00000000 NULL
P        2.60112771       2.43496758       3.88815949       0.00000000 NULL
P        4.23224993       5.71676064       2.69745907       0.00000000 NULL
P        3.36343513       5.12573022       0.76804438       0.00000000 NULL
P        2.91916802       5.64539668       4.73156284       0.00000000 NULL
P        5.46684858       1.50356341       1.01146417       0.00000000 NULL
P        2.47476625       7.00263140       0.30458785       0.00000000 NULL
P        1.24058661       5.26836355       3.47761883       0.00000000 NULL
P        4.00324246       3.19000242       2.10594359       0.00000000 NULL
P        6.75528479       2.97567519       6.69312456       0.00000000 NULL
P        1.73661293       4.12572902       1.77334842       0.00000000 NULL
P        2.60030102       3.64159881       5.67550597       0.00000000 NULL
15
Lattice="6.970120258534125 0.005479864966082604 0.01411001974259639 0.45463972023039023 7.081562135913179 -0.0249250225718241 0.9315079370005427 2.9126168469426625 7.956643581883291" Properties=species:S:1:pos:R:3:initial_magmoms:R:1:castep_labels:S:1 n_minim_iter=4 pbc="T T T"
P        6.13692254       6.03183737       4.58329651       0.00000000 NULL
P        1.26059115       4.13461160       7.83784209       0.00000000 NULL
P        5.39696048       9.21759220       7.23447612       0.00000000 NULL
P        5.71946343       4.80859829       1.45431610       0.00000000 NULL
P        2.63047983       2.44875811       3.90917680       0.00000000 NULL
P        4.26924406       5.77427396       2.71372347       0.00000000 NULL
P        3.38407409       5.18047242       0.76935150       0.00000000 NULL
P        2.95208978       5.69562346       4.75003636       0.00000000 NULL
P        5.50240419       1.51508942       1.03237485       0.00000000 NULL
P        2.49054313       7.08327039       0.29358338       0.00000000 NULL
P        1.25378846       5.32144589       3.48564031       0.00000000 NULL
P        4.03574273       3.21873239       2.12334701       0.00000000 NULL
P        6.81980428       2.98739706       6.74095266       0.00000000 NULL
P        1.75038720       4.16331443       1.77517387       0.00000000 NULL
P        2.63726334       3.66646310       5.70131893       0.00000000 NULL
15
Lattice="6.957993184140614 0.002948406451354225 0.04719071831471395 0.4512689911457017 7.13747910144513 -0.049326906140242835 0.9670805461532013 2.905596240147174 7.947384889491679" Properties=species:S:1:pos:R:3:initial_magmoms:R:1:castep_labels:S:1 n_minim_iter=5 pbc="T T T"
P        6.14767749       6.05905024       4.58623044       0.00000000 NULL
P        1.29392912       4.14151794       7.82522671       0.00000000 NULL
P        5.41831378       9.26228297       7.21971494       0.00000000 NULL
P        5.71609522       4.83738783       1.46250928       0.00000000 NULL
P        2.64411512       2.45084310       3.91013182       0.00000000 NULL
P        4.27648736       5.80913181       2.71656012       0.00000000 NULL
P        3.37874312       5.21657359       0.76715649       0.00000000 NULL
P        2.96682241       5.72150397       4.74159071       0.00000000 NULL
P        5.49591977       1.51978182       1.05322130       0.00000000 NULL
P        2.48732782       7.13861759       0.27859297       0.00000000 NULL
P        1.26069926       5.35388999       3.47236507       0.00000000 NULL
P        4.03917571       3.23464415       2.13212611       0.00000000 NULL
P        6.83909895       2.98338707       6.75820698       0.00000000 NULL
P        1.75261062       4.18423051       1.76641835       0.00000000 NULL
P        2.66093551       3.67443063       5.69552473       0.00000000 NULL
15
Lattice="6.893773938481738 -0.002846852175348174 0.12985107460693063 0.4412037477333108 7.26796368522244 -0.11410997594426972 1.0517507824046748 2.87996804467478 7.90434691113815" Properties=species:S:1:pos:R:3:initial_magmoms:R:1:castep_labels:S:1 n_minim_iter=6 pbc="T T T"
P        6.14571966       6.11657362       4.57915031       0.00000000 NULL
P        1.37220893       4.15049465       7.77265235       0.00000000 NULL
P        5.44514282       9.35866340       7.16013931       0.00000000 NULL
P        5.68053431       4.90129128       1.47662411       0.00000000 NULL
P        2.66589948       2.45023134       3.90195168       0.00000000 NULL
P        4.27510041       5.88819872       2.71600463       0.00000000 NULL
P        3.34951511       5.30063678       0.75766050       0.00000000 NULL
P        2.98869291       5.77526405       4.70648632       0.00000000 NULL
P        5.45195090       1.52881407       1.10289555       0.00000000 NULL
P        2.46867319       7.26698906       0.23700216       0.00000000 NULL
P        1.27100830       5.42810987       3.42873636       0.00000000 NULL
P        4.02852689       3.26930253       2.14823939       0.00000000 NULL
P        6.85454568       2.96689948       6.78387879       0.00000000 NULL
P        1.74991700       4.22811508       1.73817857       0.00000000 NULL
P        2.70844799       3.68804292       5.66453829       0.00000000 NULL
15
Lattice="6.801175165474416 -0.00446011095279693 0.19956602606518323 0.4335880522436475 7.446901997140819 -0.19177153984235387 1.1195179512303142 2.8612905141687066 7.873653308060451" Properties=species:S:1:pos:R:3:initial_magmoms:R:1:castep_labels:S:1 n_minim_iter=7 pbc="T T T"
P        6.11660043       6.20819614       4.55819667       0.00000000 NULL
P        1.43768586       4.18339748       7.72595926       0.00000000 NULL
P        5.43683967       9.50952417       7.08505020       0.00000000 NULL
P        5.62522038       4.99071637       1.47239882       0.00000000 NULL
P        2.67248931       2.45653418       3.89216699       0.00000000 NULL
P        4.25923140       6.01056055       2.71504134       0.00000000 NULL
P        3.30872680       5.42430886       0.73741438       0.00000000 NULL
P        2.98848305       5.85682932       4.66914449       0.00000000 NULL
P        5.37688680       1.54728179       1.14757463       0.00000000 NULL
P        2.44812482       7.44178038       0.18192036       0.00000000 NULL
P        1.26348688       5.54364739       3.38570109       0.00000000 NULL
P        4.00045531       3.32328444       2.16095953       0.00000000 NULL
P        6.83262301       2.96580287       6.80469569       0.00000000 NULL
P        1.73718216       4.28654202       1.70271954       0.00000000 NULL
P        2.74214148       3.72587687       5.62857767       0.00000000 NULL
15
Lattice="6.633751232167893 -0.011771292671677525 0.23313980839277704 0.4153234174495082 7.548196373005765 -0.2571778279303892 1.133290704714227 2.826249603639817 7.806931681085764" Properties=species:S:1:pos:R:3:initial_magmoms:R:1:castep_labels:S:1 n_minim_iter=8 pbc="T T T"
P        5.99222377       6.23677377       4.49607871       0.00000000 NULL
P        1.45155043       4.19169533       7.64092395       0.00000000 NULL
P        5.32004784       9.56762243       6.96288827       0.00000000 NULL
P        5.49541907       5.01807320       1.43911039       0.00000000 NULL
P        2.63001723       2.44020571       3.85505995       0.00000000 NULL
P        4.18012465       6.07922222       2.69565703       0.00000000 NULL
P        3.22672745       5.49600032       0.70757674       0.00000000 NULL
P        2.92349101       5.87663767       4.60799026       0.00000000 NULL
P        5.22818695       1.54595154       1.16814875       0.00000000 NULL
P        2.39402142       7.53197819       0.13220814       0.00000000 NULL
P        1.21842926       5.61148097       3.32880652       0.00000000 NULL
P        3.91377044       3.34072149       2.15163357       0.00000000 NULL
P        6.70178485       2.94423482       6.76321528       0.00000000 NULL
P        1.69565024       4.29697700       1.66052310       0.00000000 NULL
P        2.71823296       3.74116096       5.55159401       0.00000000 NULL
15
Lattice="6.700592273638135 -0.008663960485238697 0.2256900000212959 0.422808040917575 7.624462647714662 -0.26321062958503133 1.134754110739105 2.85197515463054 7.889601749787952" Properties=species:S:1:pos:R:3:initial_magmoms:R:1:castep_labels:S:1 n_minim_iter=9 pbc="T T T"
P        6.04904387       6.29937365       4.53291093       0.00000000 NULL
P        1.46149663       4.23913110       7.71841338       0.00000000 NULL
P        5.36337482       9.66185896       7.02093106       0.00000000 NULL
P        5.55228584       5.06387409       1.44222874       0.00000000 NULL
P        2.65321733       2.46058466       3.89079662       0.00000000 NULL
P        4.22616303       6.14804060       2.72530472       0.00000000 NULL
P        3.26119617       5.55538215       0.70993361       0.00000000 NULL
P        2.94618004       5.93135058       4.65486635       0.00000000 NULL
P        5.27273930       1.56209690       1.17805340       0.00000000 NULL
P        2.42285330       7.60710652       0.13117471       0.00000000 NULL
P        1.22128318       5.67332799       3.36124120       0.00000000 NULL
P        3.95239249       3.37268383       2.17182646       0.00000000 NULL
P        6.76275868       2.97674825       6.82232029       0.00000000 NULL
P        1.71131679       4.33209000       1.67443868       0.00000000 NULL
P        2.74416236       3.78412455       5.59969133       0.00000000 NULL
15
Lattice="6.637799345840941 -0.009701894383885626 0.23938094580362543 0.41770102886553573 7.60127841992369 -0.27095746120010156 1.1419139073612692 2.832487491008572 7.848970554645276" Properties=species:S:1:pos:R:3:initial_magmoms:R:1:castep_labels:S:1 n_minim_iter=10 pbc="T T T"
P        6.00211699       6.27234988       4.51454975       0.00000000 NULL
P        1.46616642       4.21863862       7.67665654       0.00000000 NULL
P        5.32618496       9.62161387       6.98237408       0.00000000 NULL
P        5.50222336       5.04302883       1.44000696       0.00000000 NULL
P        2.63763427       2.44663660       3.87344755       0.00000000 NULL
P        4.19467990       6.12701360       2.71644352       0.00000000 NULL
P        3.23210292       5.53815190       0.70741615       0.00000000 NULL
P        2.92699418       5.90424058       4.63099724       0.00000000 NULL
P        5.22306644       1.55404380       1.18350455       0.00000000 NULL
P        2.40084891       7.58216281       0.12747631       0.00000000 NULL
P        1.21430975       5.65371390       3.33955290       0.00000000 NULL
P        3.91997299       3.35812102       2.16701210       0.00000000 NULL
P        6.71475648       2.95895172       6.79839267       0.00000000 NULL
P        1.69903113       4.31355856       1.66445768       0.00000000 NULL
P        2.73290278       3.76732071       5.56897524       0.00000000 NULL
15
Lattice="6.626213739347983 -0.009748428316338745 0.24290116059978972 0.416907051987296 7.6093777871917805 -0.2765640591042147 1.1444456268168657 2.829255139461409 7.851345813627717" Properties=species:S:1:pos:R:3:initial_magmoms:R:1:castep_labels:S:1 n_minim_iter=11 pbc="T T T"
P        5.99409810       6.27480462       4.51462596       0.00000000 NULL
P        1.46961511       4.22033649       7.67711231       0.00000000 NULL
P        5.31891879       9.62539039       6.97838311       0.00000000 NULL
P        5.49329910       5.04432430       1.43882542       0.00000000 NULL
P        2.63585350       2.44484738       3.87426972       0.00000000 NULL
P        4.19148119       6.13396507       2.71902184       0.00000000 NULL
P        3.22736082       5.54463976       0.70616216       0.00000000 NULL
P        2.92313484       5.90473936       4.63138868       0.00000000 NULL
P        5.21162544       1.55394758       1.18778957       0.00000000 NULL
P        2.39759225       7.58909296       0.12489441       0.00000000 NULL
P        1.21145985       5.65951051       3.33729702       0.00000000 NULL
P        3.91461446       3.35881160       2.16929113       0.00000000 NULL
P        6.70747088       2.95807551       6.80168355       0.00000000 NULL
P        1.69711993       4.31356137       1.66306630       0.00000000 NULL
P        2.73353148       3.76968380       5.56665184       0.00000000 NULL
15
Lattice="6.462668486739313 -0.012481170788529155 0.28922898699253535 0.4035756516598541 7.713469772100017 -0.35365397190324854 1.175413326578559 2.7817228779915184 7.883934676541528" Properties=species:S:1:pos:R:3:initial_magmoms:R:1:castep_labels:S:1 n_minim_iter=12 pbc="T T T"
P        5.87540101       6.30128252       4.51485779       0.00000000 NULL
P        1.51156498       4.23959695       7.68321284       0.00000000 NULL
P        5.21132146       9.66615763       6.92179283       0.00000000 NULL
P        5.36412252       5.05570629       1.42148250       0.00000000 NULL
P        2.60756548       2.41727386       3.88528547       0.00000000 NULL
P        4.14198377       6.22233166       2.75295139       0.00000000 NULL
P        3.15870243       5.62751975       0.68793300       0.00000000 NULL
P        2.86581946       5.90479810       4.63612918       0.00000000 NULL
P        5.05198983       1.54896662       1.24495285       0.00000000 NULL
P        2.34800369       7.67648626       0.08978475       0.00000000 NULL
P        1.17168422       5.73285720       3.30437900       0.00000000 NULL
P        3.83690985       3.36278976       2.19960068       0.00000000 NULL
P        6.59987632       2.94181377       6.84513835       0.00000000 NULL
P        1.66873866       4.30952852       1.64424385       0.00000000 NULL
P        2.73637766       3.79836995       5.53337122       0.00000000 NULL
15
Lattice="6.327877729494184 -0.05686974768891307 0.274585398764841 0.34948627122512266 7.722202197643632 -0.3534069675694698 1.121975358658709 2.782069043054514 7.981947689472352" Properties=species:S:1:pos:R:3:initial_magmoms:R:1:castep_labels:S:1 n_minim_iter=13 pbc="T T T"
P        5.67902468       6.27500080       4.56887819       0.00000000 NULL
P        1.45997299       4.28404095       7.77044784       0.00000000 NULL
P        5.00943673       9.62486559       6.95467107       0.00000000 NULL
P        5.20436453       4.99270879       1.41674163       0.00000000 NULL
P        2.54105275       2.39065194       3.92229737       0.00000000 NULL
P        4.05438877       6.24208056       2.82838048       0.00000000 NULL
P        3.07012035       5.62798205       0.70149049       0.00000000 NULL
P        2.74675900       5.87344192       4.70105616       0.00000000 NULL
P        4.90063699       1.50354752       1.27549100       0.00000000 NULL
P        2.24955097       7.66913401       0.12600078       0.00000000 NULL
P        1.10191083       5.75219175       3.32406768       0.00000000 NULL
P        3.73822840       3.31723492       2.23972768       0.00000000 NULL
P        6.44387989       2.92808339       6.89869014       0.00000000 NULL
P        1.61637812       4.27453245       1.66827501       0.00000000 NULL
P        2.67625937       3.81899587       5.54408907       0.00000000 NULL
15
Lattice="6.216710680707424 -0.008353820527597611 0.36681653543715514 0.391952307732897 7.70227733057523 -0.41268109293426425 1.234633677155146 2.7051582321162586 7.95490093914986" Properties=species:S:1:pos:R:3:initial_magmoms:R:1:castep_labels:S:1 n_minim_iter=14 pbc="T T T"
P        5.67847426       6.25599308       4.58864287       0.00000000 NULL
P        1.57555754       4.21626582       7.73622993       0.00000000 NULL
P        5.07636756       9.56131578       6.91946904       0.00000000 NULL
P        5.15924559       5.00060125       1.44697018       0.00000000 NULL
P        2.56907393       2.36253021       3.92889814       0.00000000 NULL
P        4.07633078       6.23174210       2.83934103       0.00000000 NULL
P        3.06647669       5.62966923       0.69717878       0.00000000 NULL
P        2.80241021       5.83019427       4.67964567       0.00000000 NULL
P        4.83485526       1.52299910       1.33642928       0.00000000 NULL
P        2.26435555       7.66053960       0.10082288       0.00000000 NULL
P        1.16712438       5.71243861       3.27607608       0.00000000 NULL
P        3.72710128       3.30764440       2.26476866       0.00000000 NULL
P        6.44812612       2.90943209       6.94683134       0.00000000 NULL
P        1.64369631       4.25088240       1.65399732       0.00000000 NULL
P        2.73898365       3.77543387       5.52690552       0.00000000 NULL
15
Lattice="6.279798173076574 -0.011518910112966206 0.34392013546723527 0.3927789560601203 7.753594115202085 -0.4091274663149437 1.2150866419938209 2.7318243584675472 8.037117148719146" Properties=species:S:1:pos:R:3:initial_magmoms:R:1:castep_labels:S:1 n_minim_iter=15 pbc="T T T"
P        5.71212251       6.30116347       4.62184389       0.00000000 NULL
P        1.56093245       4.25605669       7.81597586       0.00000000 NULL
P        5.09457161       9.62809578       6.97871587       0.00000000 NULL
P        5.20299954       5.03102449       1.44510432       0.00000000 NULL
P        2.57938063       2.37959193       3.96219526       0.00000000 NULL
P        4.10711361       6.27819473       2.86358792       0.00000000 NULL
P        3.09301500       5.66742991       0.69803089       0.00000000 NULL
P        2.80854947       5.87316135       4.72467569       0.00000000 NULL
P        4.87613343       1.53069020       1.33411042       0.00000000 NULL
P        2.28160729       7.71218864       0.10493781       0.00000000 NULL
P        1.16414528       5.75477535       3.31073798       0.00000000 NULL
P        3.75562572       3.32840856       2.27793102       0.00000000 NULL
P        6.48740686       2.93530914       6.99469916       0.00000000 NULL
P        1.65253539       4.27817248       1.66999058       0.00000000 NULL
P        2.74566138       3.80638002       5.57547277       0.00000000 NULL
15
Lattice="6.256330373086816 -0.010130126844563353 0.3478829795207768 0.39268770473425196 7.741250870439824 -0.4117232937153967 1.2171835765847292 2.7236208259719277 8.03189645182948" Properties=species:S:1:pos:R:3:initial_magmoms:R:1:castep_labels:S:1 n_minim_iter=16 pbc="T T T"
P        5.69318169       6.29012202       4.62064309       0.00000000 NULL
P        1.56241634       4.24786993       7.81022992       0.00000000 NULL
P        5.08107039       9.60855535       6.97137464       0.00000000 NULL
P        5.18409340       5.02212386       1.44528033       0.00000000 NULL
P        2.57360120       2.37362566       3.96040249       0.00000000 NULL
P        4.09790984       6.26931207       2.86523160       0.00000000 NULL
P        3.08387799       5.65915901       0.69724678       0.00000000 NULL
P        2.80172971       5.86147692       4.72092226       0.00000000 NULL
P        4.85737119       1.52778134       1.33729173       0.00000000 NULL
P        2.27450890       7.70045654       0.10556649       0.00000000 NULL
P        1.16395399       5.74461863       3.30582860       0.00000000 NULL
P        3.74429871       3.32117491       2.27869099       0.00000000 NULL
P        6.46939338       2.93013109       6.99284713       0.00000000 NULL
P        1.64954029       4.26945968       1.66875701       0.00000000 NULL
P        2.74175882       3.79851936       5.56962806       0.00000000 NULL
15
Lattice="6.245853615549512 -0.00934107694886085 0.34995240998026245 0.39281989509846743 7.738758726022611 -0.4138056898493898 1.2185386315185747 2.7201643103673363 8.041023029546485" Properties=species:S:1:pos:R:3:initial_magmoms:R:1:castep_labels:S:1 n_minim_iter=17 pbc="T T T"
P        5.68356021       6.28747886       4.62667705       0.00000000 NULL
P        1.56394722       4.24658463       7.81853617       0.00000000 NULL
P        5.07454751       9.60180808       6.97588301       0.00000000 NULL
P        5.17503090       5.01927805       1.44675348       0.00000000 NULL
P        2.57147785       2.37088381       3.96507044       0.00000000 NULL
P        4.09581168       6.26886105       2.87177235       0.00000000 NULL
P        3.08041455       5.65798153       0.69738729       0.00000000 NULL
P        2.79840696       5.85793140       4.72562488       0.00000000 NULL
P        4.84794043       1.52644122       1.34140159       0.00000000 NULL
P        2.27129056       7.69857523       0.10710028       0.00000000 NULL
P        1.16447175       5.74234665       3.30720148       0.00000000 NULL
P        3.73971508       3.31808056       2.28269382       0.00000000 NULL
P        6.46210333       2.92935539       7.00124831       0.00000000 NULL
P        1.64897626       4.26615212       1.67061460       0.00000000 NULL
P        2.74125059       3.79618702       5.57323117       0.00000000 NULL
15
Lattice="6.191858090960539 -0.004670309196849645 0.3664930178304994 0.394119158726043 7.728278532317675 -0.4264086917262138 1.2325697754058313 2.7008533139743367 8.099186118569845" Properties=species:S:1:pos:R:3:initial_magmoms:R:1:castep_labels:S:1 n_minim_iter=18 pbc="T T T"
P        5.63721321       6.27500129       4.66760617       0.00000000 NULL
P        1.57909510       4.24038620       7.87198750       0.00000000 NULL
P        5.04677176       9.56731652       7.00908072       0.00000000 NULL
P        5.12923434       5.00567979       1.45947864       0.00000000 NULL
P        2.56422049       2.35588130       3.99608509       0.00000000 NULL
P        4.08958558       6.26898023       2.91371809       0.00000000 NULL
P        3.06400484       5.65385545       0.69999142       0.00000000 NULL
P        2.78539816       5.84030077       4.75702935       0.00000000 NULL
P        4.79958642       1.51941905       1.36915289       0.00000000 NULL
P        2.25561665       7.69169561       0.11692653       0.00000000 NULL
P        1.17078664       5.73180392       3.31749943       0.00000000 NULL
P        3.71857005       3.30193957       2.30953702       0.00000000 NULL
P        6.43079124       2.92568185       7.05823611       0.00000000 NULL
P        1.64850065       4.24924483       1.68319463       0.00000000 NULL
P        2.74430874       3.78384839       5.59927814       0.00000000 NULL
15
Lattice="6.093321296297109 0.00954384143140715 0.459304429696719 0.4023110314574411 7.701869279030686 -0.45372875255623635 1.3329796899568636 2.6537391359917906 8.245574679728009" Properties=species:S:1:pos:R:3:initial_magmoms:R:1:castep_labels:S:1 n_minim_iter=19 pbc="T T T"
P        5.59308430       6.24524626       4.80910023       0.00000000 NULL
P        1.68148140       4.22326165       8.01043490       0.00000000 NULL
P        5.06148872       9.48572336       7.12965146       0.00000000 NULL
P        5.05837363       4.97796934       1.53470023       0.00000000 NULL
P        2.58899483       2.31939154       4.09154065       0.00000000 NULL
P        4.11929498       6.26811438       3.05021756       0.00000000 NULL
P        3.04645965       5.64262447       0.72702113       0.00000000 NULL
P        2.80701648       5.80033853       4.85175593       0.00000000 NULL
P        4.71900138       1.50305528       1.47560815       0.00000000 NULL
P        2.23744574       7.67675297       0.15868736       0.00000000 NULL
P        1.21993616       5.70566769       3.35106278       0.00000000 NULL
P        3.70491916       3.26578442       2.40496037       0.00000000 NULL
P        6.43843452       2.91792295       7.24705659       0.00000000 NULL
P        1.67075869       4.21002192       1.72721447       0.00000000 NULL
P        2.80559927       3.75029035       5.68465176       0.00000000 NULL
15
Lattice="6.055328667288296 0.02864568580534134 0.40527865969515997 0.4194030261332727 7.662516262512124 -0.4419421160001838 1.2736735627912656 2.6566362036064555 8.348566643140682" Properties=species:S:1:pos:R:3:initial_magmoms:R:1:castep_labels:S:1 n_minim_iter=20 pbc="T T T"
P        5.50845586       6.23923251       4.83521589       0.00000000 NULL
P        1.63043646       4.24853471       8.10737403       0.00000000 NULL
P        4.97993851       9.44101621       7.16510843       0.00000000 NULL
P        5.01198924       4.96261051       1.51635347       0.00000000 NULL
P        2.55472291       2.30386581       4.12917876       0.00000000 NULL
P        4.12760026       6.28051199       3.11937510       0.00000000 NULL
P        3.04317355       5.62507212       0.70227441       0.00000000 NULL
P        2.74922341       5.78853669       4.89109940       0.00000000 NULL
P        4.66220656       1.48898635       1.47228587       0.00000000 NULL
P        2.23725340       7.65919940       0.19325746       0.00000000 NULL
P        1.21698637       5.69278426       3.38707119       0.00000000 NULL
P        3.68058417       3.24877714       2.42143026       0.00000000 NULL
P        6.36723912       2.95494802       7.27948131       0.00000000 NULL
P        1.67274608       4.17905894       1.75366273       0.00000000 NULL
P        2.77346872       3.74161605       5.71019579       0.00000000 NULL
15
Lattice="5.991079090450649 0.02308338676289426 0.5281516769897658 0.40957412681206457 7.598935603182015 -0.4572789621574825 1.4049186774963953 2.60337460075868 8.299996972277524" Properties=species:S:1:pos:R:3:initial_magmoms:R:1:castep_labels:S:1 n_minim_iter=21 pbc="T T T"
P        5.52890258       6.16462232       4.88984059       0.00000000 NULL
P        1.75287818       4.18599587       8.06277521       0.00000000 NULL
P        5.04534218       9.33144167       7.17614716       0.00000000 NULL
P        4.97879605       4.91225531       1.59298173       0.00000000 NULL
P        2.59799306       2.26566185       4.14153196       0.00000000 NULL
P        4.13948854       6.21595644       3.16380836       0.00000000 NULL
P        3.02116165       5.57163539       0.73564939       0.00000000 NULL
P        2.80278464       5.72101331       4.88782412       0.00000000 NULL
P        4.63155948       1.46519500       1.55369403       0.00000000 NULL
P        2.21855300       7.59422728       0.21331478       0.00000000 NULL
P        1.26312726       5.63352139       3.36235301       0.00000000 NULL
P        3.68197286       3.20800652       2.46985423       0.00000000 NULL
P        6.42076568       2.90185715       7.34372663       0.00000000 NULL
P        1.68764916       4.13530452       1.76076600       0.00000000 NULL
P        2.84345719       3.68586862       5.70639159       0.00000000 NULL
15
Lattice="6.0409611364645945 0.025438796363758568 0.5259709393875893 0.4151970515275992 7.64594914024553 -0.4541395167236526 1.4099317850788895 2.626852726687477 8.377578980222022" Properties=species:S:1:pos:R:3:initial_magmoms:R:1:castep_labels:S:1 n_minim_iter=22 pbc="T T T"
P        5.57055253       6.20894343       4.93560727       0.00000000 NULL
P        1.76187532       4.22178459       8.13920051       0.00000000 NULL
P        5.08167579       9.39543849       7.24305425       0.00000000 NULL
P        5.01953566       4.94560849       1.60672180       0.00000000 NULL
P        2.61660748       2.28135407       4.17927520       0.00000000 NULL
P        4.17569850       6.26118882       3.19785224       0.00000000 NULL
P        3.04747685       5.60717682       0.74224662       0.00000000 NULL
P        2.82161623       5.76222376       4.93491164       0.00000000 NULL
P        4.66774288       1.47422142       1.56555773       0.00000000 NULL
P        2.23869101       7.64417691       0.22286214       0.00000000 NULL
P        1.27319044       5.67261749       3.39648828       0.00000000 NULL
P        3.71201684       3.23058025       2.49227486       0.00000000 NULL
P        6.46966016       2.92938889       7.40611272       0.00000000 NULL
P        1.70199860       4.16139278       1.77986502       0.00000000 NULL
P        2.86440501       3.71332686       5.75810251       0.00000000 NULL
15
Lattice="6.026675973578534 0.02898282036581814 0.5336191178627544 0.4179020013298145 7.633751808524391 -0.45385345254555426 1.418406727579436 2.6219225406636597 8.372466607873136" Properties=species:S:1:pos:R:3:initial_magmoms:R:1:castep_labels:S:1 n_minim_iter=23 pbc="T T T"
P        5.56517137       6.20117560       4.93854989       0.00000000 NULL
P        1.77007247       4.21605862       8.13462888       0.00000000 NULL
P        5.08196274       9.38110393       7.24153128       0.00000000 NULL
P        5.01085888       4.94048032       1.61190131       0.00000000 NULL
P        2.61681216       2.27716397       4.17941281       0.00000000 NULL
P        4.17509946       6.25447120       3.20317620       0.00000000 NULL
P        3.04429906       5.59927229       0.74347510       0.00000000 NULL
P        2.82265305       5.75390833       4.93320387       0.00000000 NULL
P        4.65785277       1.47262823       1.57115339       0.00000000 NULL
P        2.23793032       7.63402813       0.22658114       0.00000000 NULL
P        1.27822927       5.66413809       3.39435167       0.00000000 NULL
P        3.70813107       3.22655893       2.49551268       0.00000000 NULL
P        6.46517541       2.92838996       7.40840468       0.00000000 NULL
P        1.70328487       4.15446382       1.78101282       0.00000000 NULL
P        2.86738912       3.70719866       5.75539551       0.00000000 NULL
15
Lattice="6.023510806204204 0.03176938061038949 0.5391312733360867 0.42054850989290055 7.630721836625869 -0.4531187348640444 1.4255473079003598 2.6213834157900555 8.380401714609926" Properties=species:S:1:pos:R:3:initial_magmoms:R:1:castep_labels:S:1 n_minim_iter=24 pbc="T T T"
P        5.56716953       6.20103627       4.94783128       0.00000000 NULL
P        1.77755359       4.21674481       8.14280345       0.00000000 NULL
P        5.08733447       9.37857051       7.25044092       0.00000000 NULL
P        5.01027966       4.94090318       1.61799987       0.00000000 NULL
P        2.61978646       2.27585402       4.18531647       0.00000000 NULL
P        4.18021301       6.25551726       3.21272926       0.00000000 NULL
P        3.04575807       5.59779872       0.74524208       0.00000000 NULL
P        2.82598733       5.75307760       4.93900318       0.00000000 NULL
P        4.65575091       1.47219567       1.57730287       0.00000000 NULL
P        2.24020688       7.63305898       0.23107609       0.00000000 NULL
P        1.28352262       5.66299639       3.39788750       0.00000000 NULL
P        3.70973811       3.22636845       2.50148021       0.00000000 NULL
P        6.46929204       2.93132072       7.41969913       0.00000000 NULL
P        1.70641381       4.15253095       1.78489428       0.00000000 NULL
P        2.87282849       3.70605795       5.76107473       0.00000000 NULL
15
Lattice="5.976347584644336 0.07363529135590494 0.6304781572359577 0.4603354397785171 7.573180699129081 -0.43989602158003865 1.5427407934558743 2.610138873983169 8.515596067769158" Properties=species:S:1:pos:R:3:initial_magmoms:R:1:castep_labels:S:1 n_minim_iter=25 pbc="T T T"
P        5.60050588       6.18932554       5.10446962       0.00000000 NULL
P        1.89986165       4.22494590       8.28214710       0.00000000 NULL
P        5.17342984       9.32498770       7.40014844       0.00000000 NULL
P        5.00163715       4.94038370       1.72034357       0.00000000 NULL
P        2.66964468       2.24992450       4.28550236       0.00000000 NULL
P        4.26658977       6.26606379       3.37632578       0.00000000 NULL
P        3.06882431       5.56537090       0.77343713       0.00000000 NULL
P        2.87854303       5.73250785       5.03648512       0.00000000 NULL
P        4.62332768       1.45874565       1.68006120       0.00000000 NULL
P        2.27612942       7.60946081       0.30846488       0.00000000 NULL
P        1.36941539       5.63907103       3.45822874       0.00000000 NULL
P        3.73780569       3.21794805       2.60240391       0.00000000 NULL
P        6.54141457       2.97432187       7.61051334       0.00000000 NULL
P        1.75765265       4.11539389       1.85148885       0.00000000 NULL
P        2.96255891       3.68174514       5.85666721       0.00000000 NULL
15
Lattice="5.98307740181398 0.022853486096762892 0.6802091686705265 0.40882346697525057 7.388732961158915 -0.4288106279612621 1.5795289548812417 2.5371446272483857 8.388264390019266" Properties=species:S:1:pos:R:3:initial_magmoms:R:1:castep_labels:S:1 n_minim_iter=26 pbc="T T T"
P        5.57573159       5.99049037       5.08644126       0.00000000 NULL
P        1.92178122       4.14059293       8.16185995       0.00000000 NULL
P        5.13573690       9.05521049       7.29357963       0.00000000 NULL
P        4.96559652       4.79629543       1.74739774       0.00000000 NULL
P        2.68622637       2.14708218       4.25000557       0.00000000 NULL
P        4.28612286       6.12016075       3.40543333       0.00000000 NULL
P        3.04469753       5.38636817       0.74989246       0.00000000 NULL
P        2.83766791       5.57732049       4.95737025       0.00000000 NULL
P        4.60376634       1.33896299       1.70660117       0.00000000 NULL
P        2.23543765       7.43778177       0.35330693       0.00000000 NULL
P        1.37817403       5.51015390       3.40149077       0.00000000 NULL
P        3.74250714       3.10660174       2.60795493       0.00000000 NULL
P        6.59032420       2.87520929       7.55387230       0.00000000 NULL
P        1.75876341       3.98639551       1.85315423       0.00000000 NULL
P        2.98881415       3.54715554       5.75881444       0.00000000 NULL
15
Lattice="6.056212827276062 0.06308744969621796 0.6992262216331643 0.4546910208819425 7.520614182320554 -0.42386076667900596 1.6281819445246615 2.6003214703333994 8.603355700605233" Properties=species:S:1:pos:R:3:initial_magmoms:R:1:castep_labels:S:1 n_minim_iter=27 pbc="T T T"
P        5.68714125       6.13601204       5.23174532       0.00000000 NULL
P        1.98370916       4.23694177       8.37577680       0.00000000 NULL
P        5.25923711       9.25532731       7.49187923       0.00000000 NULL
P        5.05487484       4.91670809       1.80211961       0.00000000 NULL
P        2.73713121       2.20052924       4.36087764       0.00000000 NULL
P        4.38014604       6.26348207       3.50540583       0.00000000 NULL
P        3.11427279       5.49963723       0.77857376       0.00000000 NULL
P        2.91031241       5.70037265       5.09438766       0.00000000 NULL
P        4.66797150       1.39010828       1.75441829       0.00000000 NULL
P        2.30554026       7.58557175       0.38039042       0.00000000 NULL
P        1.43129338       5.62196767       3.49598232       0.00000000 NULL
P        3.80974646       3.18749699       2.68015642       0.00000000 NULL
P        6.70044739       2.97748146       7.74976302       0.00000000 NULL
P        1.80596636       4.06654621       1.90911541       0.00000000 NULL
P        3.05743112       3.63377393       5.91251820       0.00000000 NULL
15
Lattice="5.990210036758363 0.07473758816982289 0.7095320159569781 0.462356054148351 7.467097934341511 -0.4215632077591352 1.6363992088397608 2.5811541926734227 8.534890884583282" Properties=species:S:1:pos:R:3:initial_magmoms:R:1:castep_labels:S:1 n_minim_iter=28 pbc="T T T"
P        5.64796256       6.10006845       5.20117440       0.00000000 NULL
P        1.98989599       4.20726130       8.31014900       0.00000000 NULL
P        5.23507342       9.19633852       7.43972124       0.00000000 NULL
P        5.01074379       4.89163027       1.79921374       0.00000000 NULL
P        2.72163105       2.18738194       4.33121101       0.00000000 NULL
P        4.35258260       6.22652862       3.48739509       0.00000000 NULL
P        3.09203676       5.46504724       0.77736562       0.00000000 NULL
P        2.89972711       5.66283353       5.05641442       0.00000000 NULL
P        4.62200232       1.38766821       1.75127931       0.00000000 NULL
P        2.29513884       7.53544602       0.38112477       0.00000000 NULL
P        1.43452978       5.58345978       3.46851967       0.00000000 NULL
P        3.77965001       3.17040697       2.66687599       0.00000000 NULL
P        6.65115333       2.96714257       7.70261745       0.00000000 NULL
P        1.79886911       4.03937948       1.89754410       0.00000000 NULL
P        3.04500605       3.61052719       5.86911330       0.00000000 NULL
