4
Lattice="3.4147200000000013 -7.411131936868094e-17 0.0 -1.7002464678148643 3.041598320338023 0.0 0.0 0.0 8.47173" Properties=species:S:1:pos:R:3:initial_magmoms:R:1:castep_labels:S:1 n_minim_iter=1 pbc="T T T"
P        0.09906498       2.83026868       0.90061183       0.00000000 NULL
P        1.61540856       0.21132964       5.13647683       0.00000000 NULL
P        0.69789367       1.62557340       3.94989328       0.00000000 NULL
P        1.01657987       1.41602492       8.18575828       0.00000000 NULL
4
Lattice="3.4147200484362403 0.00037975486148051247 0.0 -1.6999082323533128 3.040977996876276 0.0 0.0 0.0 8.473887397603301" Properties=species:S:1:pos:R:3:initial_magmoms:R:1:castep_labels:S:1 n_minim_iter=2 pbc="T T T"
P        0.09930319       2.82991910       0.90100546       0.00000000 NULL
P        1.61550863       0.21143865       5.13794916       0.00000000 NULL
P        0.69799997       1.62546051       3.95073487       0.00000000 NULL
P        1.01681185       1.41589724       8.18767857       0.00000000 NULL
4
Lattice="3.4154636178234106 0.06255462574271026 0.0 -1.644897358367897 2.940135978167039 0.0 0.0 0.0 8.836652000996" Properties=species:S:1:pos:R:3:initial_magmoms:R:1:castep_labels:S:1 n_minim_iter=3 pbc="T T T"
P        0.13837858       2.77299097       0.96778713       0.00000000 NULL
P        1.63218769       0.22969963       5.38611313       0.00000000 NULL
P        0.71560791       1.60700557       4.09165476       0.00000000 NULL
P        1.05495835       1.39568503       8.50998076       0.00000000 NULL
4
Lattice="3.459078595384284 0.20831414593095127 0.0 -1.5367814073569428 2.7577187884086136 0.0 0.0 0.0 9.129985260768189" Properties=species:S:1:pos:R:3:initial_magmoms:R:1:castep_labels:S:1 n_minim_iter=4 pbc="T T T"
P        0.24711487       2.67782929       1.02903810       0.00000000 NULL
P        1.67518232       0.28820364       5.59403073       0.00000000 NULL
P        0.78117402       1.58068893       4.19835231       0.00000000 NULL
P        1.14112318       1.38534400       8.76334494       0.00000000 NULL
4
Lattice="3.5574042819188474 0.2005092221017806 0.0 -1.5926915096303453 2.8656051267181484 0.0 0.0 0.0 9.207222071677421" Properties=species:S:1:pos:R:3:initial_magmoms:R:1:castep_labels:S:1 n_minim_iter=5 pbc="T T T"
P        0.23992671       2.77588776       1.04722241       0.00000000 NULL
P        1.72478607       0.29022659       5.65083345       0.00000000 NULL
P        0.79440054       1.63607193       4.22439008       0.00000000 NULL
P        1.17031224       1.43004242       8.82800112       0.00000000 NULL
4
Lattice="3.5683058400003764 0.2417829797156161 0.0 -1.5613557467535992 2.810896276645471 0.0 0.0 0.0 9.070414167973036" Properties=species:S:1:pos:R:3:initial_magmoms:R:1:castep_labels:S:1 n_minim_iter=6 pbc="T T T"
P        0.27441116       2.74546487       1.02906035       0.00000000 NULL
P        1.73253894       0.30721438       5.56426744       0.00000000 NULL
P        0.81637107       1.62641050       4.16422252       0.00000000 NULL
P        1.19057903       1.42626876       8.69942960       0.00000000 NULL
4
Lattice="3.5924017277738804 0.2527639433872854 0.0 -1.5635724050495425 2.8169987354913992 0.0 0.0 0.0 9.03410476789273" Properties=species:S:1:pos:R:3:initial_magmoms:R:1:castep_labels:S:1 n_minim_iter=7 pbc="T T T"
P        0.28371917       2.75705572       1.02659235       0.00000000 NULL
P        1.74511016       0.31270696       5.54364473       0.00000000 NULL
P        0.82621593       1.63529448       4.14590150       0.00000000 NULL
P        1.20261340       1.43446819       8.66295389       0.00000000 NULL
