4
Lattice="2.324730000000001 -7.512791107273708e-17 0.0 -0.2117212636044591 5.395867873376603 0.0 0.0 0.0 7.30078" Properties=species:S:1:pos:R:3:initial_magmoms:R:1:castep_labels:S:1 n_minim_iter=1 pbc="T T T"
P        0.44606584       4.24773349       4.79301902       0.00000000 NULL
P        0.44606584       4.24773349       2.50776098       0.00000000 NULL
P        1.42652706       0.77451262       2.63449376       0.00000000 NULL
P        1.42652706       0.77451262       4.66628624       0.00000000 NULL
4
Lattice="2.327768415995147 -1.5694278424708635e-05 0.0 -0.21203441030390174 5.401638738490456 0.0 0.0 0.0 7.3065941580852884" Properties=species:S:1:pos:R:3:initial_magmoms:R:1:castep_labels:S:1 n_minim_iter=2 pbc="T T T"
P        0.44663432       4.25198786       4.79688181       0.00000000 NULL
P        0.44663432       4.25198786       2.50971235       0.00000000 NULL
P        1.42837215       0.77561555       2.63625115       0.00000000 NULL
P        1.42837215       0.77561555       4.67034301       0.00000000 NULL
4
Lattice="2.491747982677139 -0.0012965838909712627 0.0 -0.22994163917474048 5.71111185017497 0.0 0.0 0.0 7.615439318919215" Properties=species:S:1:pos:R:3:initial_magmoms:R:1:castep_labels:S:1 n_minim_iter=3 pbc="T T T"
P        0.47661993       4.47954386       5.00201956       0.00000000 NULL
P        0.47661993       4.47954386       2.61341976       0.00000000 NULL
P        1.52770651       0.83496372       2.72910869       0.00000000 NULL
P        1.52770651       0.83496372       4.88633063       0.00000000 NULL
4
Lattice="2.5795958572640116 -0.03965234851204276 0.0 -0.3269687782791242 5.797723029868889 0.0 0.0 0.0 7.650404143362072" Properties=species:S:1:pos:R:3:initial_magmoms:R:1:castep_labels:S:1 n_minim_iter=4 pbc="T T T"
P        0.42791669       4.53167290       5.01975893       0.00000000 NULL
P        0.42791669       4.53167290       2.63064521       0.00000000 NULL
P        1.56430995       0.82930145       2.73353078       0.00000000 NULL
P        1.56430995       0.82930145       4.91687337       0.00000000 NULL
4
Lattice="2.5953356357379254 -0.08580743151060599 0.0 -0.43553156850952907 5.811181349861957 0.0 0.0 0.0 7.615366885929482" Properties=species:S:1:pos:R:3:initial_magmoms:R:1:castep_labels:S:1 n_minim_iter=5 pbc="T T T"
P        0.35236737       4.52675651       4.98958892       0.00000000 NULL
P        0.35236737       4.52675651       2.62577797       0.00000000 NULL
P        1.55282637       0.80565346       2.71545250       0.00000000 NULL
P        1.55282637       0.80565346       4.89991439       0.00000000 NULL
4
Lattice="2.599331697587533 -0.15157502121511923 0.0 -0.5885468759474838 5.874769480641325 0.0 0.0 0.0 7.584021993949631" Properties=species:S:1:pos:R:3:initial_magmoms:R:1:castep_labels:S:1 n_minim_iter=6 pbc="T T T"
P        0.24166747       4.55225752       4.96062038       0.00000000 NULL
P        0.24166747       4.55225752       2.62340162       0.00000000 NULL
P        1.52466368       0.78078621       2.69719795       0.00000000 NULL
P        1.52466368       0.78078621       4.88682404       0.00000000 NULL
4
Lattice="2.579483568544618 -0.21721685538564767 0.0 -0.7390987220496622 5.969435415014132 0.0 0.0 0.0 7.559747310586114" Properties=species:S:1:pos:R:3:initial_magmoms:R:1:castep_labels:S:1 n_minim_iter=7 pbc="T T T"
P        0.12721494       4.59992205       4.93755365       0.00000000 NULL
P        0.12721494       4.59992205       2.62219366       0.00000000 NULL
P        1.48131857       0.76279331       2.68246622       0.00000000 NULL
P        1.48131857       0.76279331       4.87728109       0.00000000 NULL
4
Lattice="2.4690425328626198 -0.8109790422123763 0.0 -2.1072058109140923 7.046917090053572 0.0 0.0 0.0 7.456179472343144" Properties=species:S:1:pos:R:3:initial_magmoms:R:1:castep_labels:S:1 n_minim_iter=8 pbc="T T T"
P       -0.87934205       5.16820166       4.81516340       0.00000000 NULL
P       -0.87934205       5.16820166       2.64101608       0.00000000 NULL
P        1.11617608       0.66877523       2.59461009       0.00000000 NULL
P        1.11617608       0.66877523       4.86156938       0.00000000 NULL
4
Lattice="2.30007390634362 -0.5389235526145691 0.0 -1.4603566167226547 5.6849374142354145 0.0 0.0 0.0 7.289100571016295" Properties=species:S:1:pos:R:3:initial_magmoms:R:1:castep_labels:S:1 n_minim_iter=9 pbc="T T T"
P       -0.46660866       4.24760623       4.71698757       0.00000000 NULL
P       -0.46660866       4.24760623       2.57211300       0.00000000 NULL
P        1.15507371       0.56390226       2.55598817       0.00000000 NULL
P        1.15507371       0.56390226       4.73311240       0.00000000 NULL
4
Lattice="2.4535460962126017 -0.5547761955929517 0.0 -1.5111290044504198 6.384353875496221 0.0 0.0 0.0 7.662808689209023" Properties=species:S:1:pos:R:3:initial_magmoms:R:1:castep_labels:S:1 n_minim_iter=10 pbc="T T T"
P       -0.45426248       4.74704621       4.97251774       0.00000000 NULL
P       -0.45426248       4.74704621       2.69029095       0.00000000 NULL
P        1.23210352       0.70133636       2.67645668       0.00000000 NULL
P        1.23210352       0.70133636       4.98635201       0.00000000 NULL
4
Lattice="2.497638175504377 -0.5278303472726955 0.0 -1.4526013446664656 6.2128301146316955 0.0 0.0 0.0 7.5462115955587405" Properties=species:S:1:pos:R:3:initial_magmoms:R:1:castep_labels:S:1 n_minim_iter=11 pbc="T T T"
P       -0.40231851       4.62925840       4.89398858       0.00000000 NULL
P       -0.40231851       4.62925840       2.65222302       0.00000000 NULL
P        1.27388880       0.68346637       2.64009996       0.00000000 NULL
P        1.27388880       0.68346637       4.90611164       0.00000000 NULL
4
Lattice="2.5222823450843337 -0.486294287602908 0.0 -1.3584375513507236 6.085279986584564 0.0 0.0 0.0 7.509771906973323" Properties=species:S:1:pos:R:3:initial_magmoms:R:1:castep_labels:S:1 n_minim_iter=12 pbc="T T T"
P       -0.32858426       4.54624693       4.87044110       0.00000000 NULL
P       -0.32858426       4.54624693       2.63933081       0.00000000 NULL
P        1.30973838       0.68473817       2.62970648       0.00000000 NULL
P        1.30973838       0.68473817       4.88006543       0.00000000 NULL
4
Lattice="2.5276975558604975 -0.4488014953774072 0.0 -1.2719072283521167 6.052710236457076 0.0 0.0 0.0 7.536793722015036" Properties=species:S:1:pos:R:3:initial_magmoms:R:1:castep_labels:S:1 n_minim_iter=13 pbc="T T T"
P       -0.26381375       4.53005230       4.89009942       0.00000000 NULL
P       -0.26381375       4.53005230       2.64669430       0.00000000 NULL
P        1.33032768       0.70399722       2.63958906       0.00000000 NULL
P        1.33032768       0.70399722       4.89720466       0.00000000 NULL
