12
Lattice="4.789007039887107 -4.38456554167663e-06 0.0 -2.3944993462736104 4.558660182256128 0.0 0.0 0.0 11.370698450389568" Properties=species:S:1:pos:R:3:initial_magmoms:R:1:castep_labels:S:1:forces:R:3 n_minim_iter=1 energy=-60.859645874817 stress="3.677910603262205e-05 0.0 -0.0 0.0 4.874339353720995e-05 0.0 -0.0 0.0 -0.0010566036934607271" free_energy=-60.859645874817 pbc="T T T"
P        1.40079426       3.42577872       6.50457897       0.00000000 NULL       0.00568200      -0.00154500       0.00662600
P        3.79529568       1.13287361       4.86611948       0.00000000 NULL       0.00568100       0.00154800      -0.00662500
P        1.40079216       1.13287581       6.50457897       0.00000000 NULL       0.00568100       0.00154600       0.00662500
P       -0.99370926       3.42578092       4.86611948       0.00000000 NULL       0.00568200      -0.00154700      -0.00662600
P       -2.59839971       4.93272970       7.95724041       0.00000000 NULL      -0.00820100      -0.00586300       0.00172100
P       -0.20390105      -0.37407004       3.41345804       0.00000000 NULL      -0.00820200       0.00586300      -0.00172200
P        2.19060247      -0.37407223       7.95724041       0.00000000 NULL      -0.00820200       0.00586300       0.00172200
P       -0.20389619       4.93272751       3.41345804       0.00000000 NULL      -0.00820100      -0.00586300      -0.00172000
P        2.15415457      -0.34726527       1.16372051       0.00000000 NULL       0.00251900      -0.00565900       0.01647500
P       -0.24034414       4.90592061      10.20697794       0.00000000 NULL       0.00252100       0.00565800      -0.01647600
P        2.15415938       4.90591842       1.16372051       0.00000000 NULL       0.00252100       0.00565900       0.01647600
P        4.54865809      -0.34726746      10.20697794       0.00000000 NULL       0.00251900      -0.00565800      -0.01647500
12
Lattice="4.788759188917547 -4.384338622231172e-06 0.0 -2.3943754210750994 4.558347507188849 0.0 0.0 0.0 11.387617555501123" Properties=species:S:1:pos:R:3:initial_magmoms:R:1:castep_labels:S:1:forces:R:3 n_minim_iter=2 energy=-60.859849317452 stress="0.0006016616050794995 0.0 -0.0 0.0 0.00034339284975652636 0.0 -0.0 0.0 5.0808946724753136e-05" free_energy=-60.859849317452 pbc="T T T"
P        1.40075397       3.42553499       6.51429511       0.00000000 NULL       0.00325300       0.00309300       0.01034400
P        3.79513147       1.13280468       4.87332244       0.00000000 NULL       0.00325100      -0.00309000      -0.01034300
P        1.40075187       1.13280687       6.51429511       0.00000000 NULL       0.00325100      -0.00309200       0.01034300
P       -0.99362562       3.42553718       4.87332244       0.00000000 NULL       0.00325300       0.00309100      -0.01034400
P       -2.59831172       4.93235814       7.96909021       0.00000000 NULL      -0.00495800      -0.01370200       0.00149000
P       -0.20393699      -0.37401115       3.41852734       0.00000000 NULL      -0.00496000       0.01370200      -0.00149100
P        2.19044261      -0.37401334       7.96909021       0.00000000 NULL      -0.00495900       0.01370100       0.00149100
P       -0.20393213       4.93235594       3.41852734       0.00000000 NULL      -0.00495800      -0.01370300      -0.00148900
P        2.15405737      -0.34727353       1.16554561       0.00000000 NULL       0.00170600       0.00336700       0.01368300
P       -0.24031741       4.90561619      10.22207195       0.00000000 NULL       0.00170800      -0.00336800      -0.01368400
P        2.15406218       4.90561400       1.16554561       0.00000000 NULL       0.00170800      -0.00336700       0.01368300
P        4.54843697      -0.34727572      10.22207195       0.00000000 NULL       0.00170600       0.00336800      -0.01368300
12
Lattice="4.785263155430406 -4.381137835941249e-06 0.0 -2.392627406131486 4.556381516544886 0.0 0.0 0.0 11.393250435090392" Properties=species:S:1:pos:R:3:initial_magmoms:R:1:castep_labels:S:1:forces:R:3 n_minim_iter=3 energy=-60.859931106916 stress="-1.698787572268278e-05 0.0 -0.0 0.0 2.3187242692571758e-05 0.0 -0.0 0.0 1.4492026682857348e-05" free_energy=-60.859931106916 pbc="T T T"
P        1.39975880       3.42406899       6.51758078       0.00000000 NULL       0.00361400      -0.00100300       0.00654900
P        3.79238828       1.13230468       4.87566965       0.00000000 NULL       0.00361200       0.00100600      -0.00654800
P        1.39975670       1.13230687       6.51758078       0.00000000 NULL       0.00361200       0.00100400       0.00654800
P       -0.99287278       3.42407118       4.87566965       0.00000000 NULL       0.00361400      -0.00100500      -0.00654900
P       -2.59645571       4.93015334       7.97304288       0.00000000 NULL      -0.00477000      -0.01344600       0.00719100
P       -0.20382899      -0.37377235       3.42020756       0.00000000 NULL      -0.00477100       0.01344500      -0.00719200
P        2.18880259      -0.37377454       7.97304288       0.00000000 NULL      -0.00477100       0.01344500       0.00719200
P       -0.20382413       4.93015115       3.42020756       0.00000000 NULL      -0.00477000      -0.01344600      -0.00719000
P        2.15249823      -0.34711971       1.16622232       0.00000000 NULL       0.00115600       0.00151400       0.01188200
P       -0.24012854       4.90349639      10.22702811       0.00000000 NULL       0.00115800      -0.00151500      -0.01188200
P        2.15250304       4.90349420       1.16622232       0.00000000 NULL       0.00115800      -0.00151400       0.01188200
P        4.54512981      -0.34712190      10.22702811       0.00000000 NULL       0.00115600       0.00151500      -0.01188200
12
Lattice="4.787625202646597 -4.383300403418673e-06 0.0 -2.393808433600582 4.552164369847369 0.0 0.0 0.0 11.39509892342806" Properties=species:S:1:pos:R:3:initial_magmoms:R:1:castep_labels:S:1:forces:R:3 n_minim_iter=4 energy=-60.860071343458 stress="0.0002621752902434051 0.0 -0.0 0.0 -0.0004294826671380984 0.0 -0.0 0.0 -1.0227695242178605e-05" free_energy=-60.860071343458 pbc="T T T"
P        1.40099239       3.42075178       6.51961997       0.00000000 NULL      -0.00448300      -0.00004000       0.00190300
P        3.79480289       1.13140475       4.87547896       0.00000000 NULL      -0.00448500       0.00004200      -0.00190200
P        1.40099029       1.13140694       6.51961997       0.00000000 NULL      -0.00448400       0.00004100       0.00190200
P       -0.99282021       3.42075397       4.87547896       0.00000000 NULL      -0.00448200      -0.00004200      -0.00190300
P       -2.59845614       4.92361192       7.97539341       0.00000000 NULL       0.00430200      -0.00354200       0.00723500
P       -0.20464839      -0.37144807       3.41970552       0.00000000 NULL       0.00430100       0.00354200      -0.00723600
P        2.18916422      -0.37145026       7.97539341       0.00000000 NULL       0.00430100       0.00354100       0.00723600
P       -0.20464354       4.92360973       3.41970552       0.00000000 NULL       0.00430200      -0.00354300      -0.00723500
P        2.15373679      -0.34659112       1.16820139       0.00000000 NULL       0.00018000       0.00158800       0.01208300
P       -0.24007101       4.89875066      10.22689754       0.00000000 NULL       0.00018300      -0.00158900      -0.01208300
P        2.15374159       4.89874846       1.16820139       0.00000000 NULL       0.00018300      -0.00158800       0.01208300
P        4.54754939      -0.34659332      10.22689754       0.00000000 NULL       0.00018000       0.00158900      -0.01208300
12
Lattice="4.785018016564523 -4.3809133995999906e-06 0.0 -2.3925048360989085 4.557036463902399 0.0 0.0 0.0 11.397355194268997" Properties=species:S:1:pos:R:3:initial_magmoms:R:1:castep_labels:S:1:forces:R:3 n_minim_iter=5 energy=-60.860232692858 stress="1.508903088026878e-05 0.0 -0.0 0.0 3.524797613630787e-05 0.0 -0.0 0.0 -1.4646419307780897e-05" free_energy=-60.860232692858 pbc="T T T"
P        1.40077044       3.42423686       6.52208094       0.00000000 NULL      -0.00899600      -0.01071300      -0.00394500
P        3.79327735       1.13279176       4.87527425       0.00000000 NULL      -0.00899600       0.01071400       0.00394400
P        1.40076834       1.13279395       6.52208094       0.00000000 NULL      -0.00899600       0.01071200      -0.00394500
P       -0.99173857       3.42423905       4.87527425       0.00000000 NULL      -0.00899600      -0.01071500       0.00394500
P       -2.59778862       4.92651958       7.97834334       0.00000000 NULL       0.00972300       0.00141000       0.00055300
P       -0.20528446      -0.36948364       3.41901185       0.00000000 NULL       0.00972200      -0.00140900      -0.00055200
P        2.18722455      -0.36948583       7.97834334       0.00000000 NULL       0.00972300      -0.00141000       0.00055200
P       -0.20527961       4.92651739       3.41901185       0.00000000 NULL       0.00972300       0.00141000      -0.00055200
P        2.15277037      -0.34669158       1.17073751       0.00000000 NULL      -0.00072600      -0.00240300       0.00862500
P       -0.23973383       4.90372321      10.22661768       0.00000000 NULL      -0.00072700       0.00240200      -0.00862500
P        2.15277518       4.90372102       1.17073751       0.00000000 NULL      -0.00072700       0.00240300       0.00862500
P        4.54527938      -0.34669377      10.22661768       0.00000000 NULL      -0.00072700      -0.00240200      -0.00862500
12
Lattice="4.784000356617014 -4.379981683126288e-06 0.0 -2.391996006383372 4.556754427387363 0.0 0.0 0.0 11.398931457848555" Properties=species:S:1:pos:R:3:initial_magmoms:R:1:castep_labels:S:1:forces:R:3 n_minim_iter=6 energy=-60.860378320667 stress="-3.863318772547783e-06 0.0 -0.0 0.0 1.2475300203018882e-06 0.0 -0.0 0.0 -3.549424122278275e-05" free_energy=-60.860378320667 pbc="T T T"
P        1.39934481       3.42193720       6.52329000       0.00000000 NULL      -0.00294400       0.00588600      -0.00327600
P        3.79134289       1.13480939       4.87564145       0.00000000 NULL      -0.00294500      -0.00588400       0.00327500
P        1.39934271       1.13481158       6.52329000       0.00000000 NULL      -0.00294400      -0.00588600      -0.00327600
P       -0.99265537       3.42193939       4.87564145       0.00000000 NULL      -0.00294300       0.00588400       0.00327600
P       -2.59615485       4.92435351       7.98081310       0.00000000 NULL       0.00252700      -0.00585700      -0.00758900
P       -0.20415952      -0.36759960       3.41811835       0.00000000 NULL       0.00252600       0.00585800       0.00758900
P        2.18784066      -0.36760179       7.98081310       0.00000000 NULL       0.00252700       0.00585700      -0.00758900
P       -0.20415467       4.92435132       3.41811835       0.00000000 NULL       0.00252700      -0.00585700       0.00758900
P        2.15235888      -0.34684910       1.17446757       0.00000000 NULL       0.00041700      -0.00202400       0.00198100
P       -0.23963649       4.90359869      10.22446389       0.00000000 NULL       0.00041700       0.00202300      -0.00198100
P        2.15236369       4.90359650       1.17446757       0.00000000 NULL       0.00041800       0.00202400       0.00198000
P        4.54435906      -0.34685129      10.22446389       0.00000000 NULL       0.00041700      -0.00202300      -0.00198000
