14
Lattice="3.5404500000000008 6.978610590167389e-16 5.113714235895417e-16 -0.25706563644581976 8.780827906675931 7.477660305399704e-16 -0.4587333970365165 -2.554839550319913 9.675581232497846" Properties=species:S:1:pos:R:3:initial_magmoms:R:1:castep_labels:S:1 n_minim_iter=1 pbc="T T T"
P        2.22000691       2.05643935       8.97387422       0.00000000 NULL
P        0.37893836       4.08553200       5.67701280       0.00000000 NULL
P        0.11169555       6.34815218       4.32836739       0.00000000 NULL
P        1.34229043      -0.35297963       3.90039999       0.00000000 NULL
P        0.13035558       6.20988669       0.05992765       0.00000000 NULL
P        2.45153241      -0.25334108       5.59220730       0.00000000 NULL
P        2.78233059       1.92920454       2.77852505       0.00000000 NULL
P        1.89688343       5.87223008       0.97726467       0.00000000 NULL
P        1.42128964       1.33117651       1.42325962       0.00000000 NULL
P        0.88423295      -0.11348303       9.42697104       0.00000000 NULL
P        1.10543215       5.83442068       6.35300212       0.00000000 NULL
P        2.90340561       5.74036255       7.34105506       0.00000000 NULL
P        1.95209348      -0.86445704       7.44409806       0.00000000 NULL
P        1.92053113       7.19194541       2.52019187       0.00000000 NULL
14
Lattice="3.5486125446379826 0.0015033802379911167 0.0017245173823973222 -0.25392970360798506 8.791714861661541 0.002798344136050145 -0.4561629947151152 -2.5550122689070442 9.695223364357172" Properties=species:S:1:pos:R:3:initial_magmoms:R:1:castep_labels:S:1 n_minim_iter=2 pbc="T T T"
P        2.23030698       2.06269769       8.99475988       0.00000000 NULL
P        0.38419417       4.09251727       5.69063353       0.00000000 NULL
P        0.11673970       6.35758303       4.33975876       0.00000000 NULL
P        1.34683102      -0.35142841       3.90929122       0.00000000 NULL
P        0.13339218       6.21802548       0.06197683       0.00000000 NULL
P        2.46008622      -0.25057460       5.60526984       0.00000000 NULL
P        2.79110979       1.93379408       2.78653521       0.00000000 NULL
P        1.90422257       5.88043963       0.98234118       0.00000000 NULL
P        1.42562657       1.33375034       1.42749676       0.00000000 NULL
P        0.89079637      -0.10993553       9.44735087       0.00000000 NULL
P        1.11369258       5.84452473       6.36886961       0.00000000 NULL
P        2.91603083       5.75115798       7.36039940       0.00000000 NULL
P        1.95981967      -0.86230998       7.46092940       0.00000000 NULL
P        1.92939087       7.20258890       2.52902095       0.00000000 NULL
14
Lattice="3.708346239258775 0.03163835961310646 0.036550072231620094 -0.1907885707026804 8.99872561455176 0.05757267202103103 -0.40343176919286355 -2.5566425662334313 10.073283423082922" Properties=species:S:1:pos:R:3:initial_magmoms:R:1:castep_labels:S:1 n_minim_iter=3 pbc="T T T"
P        2.43492757       2.18424077       9.39842213       0.00000000 NULL
P        0.48946078       4.22655141       5.95366674       0.00000000 NULL
P        0.21803473       6.53790665       4.55999546       0.00000000 NULL
P        1.43658210      -0.32056906       4.08125472       0.00000000 NULL
P        0.19413405       6.37313752       0.10199813       0.00000000 NULL
P        2.62938095      -0.19560453       5.85808015       0.00000000 NULL
P        2.96426469       2.02289596       2.94231173       0.00000000 NULL
P        2.04928206       6.03735862       1.08175660       0.00000000 NULL
P        1.51105859       1.38348730       1.51001835       0.00000000 NULL
P        1.02207406      -0.04010821       9.84035678       0.00000000 NULL
P        1.27855759       6.03861680       6.67559223       0.00000000 NULL
P        3.16644361       5.95915122       7.73540132       0.00000000 NULL
P        2.11312713      -0.81927091       7.78626135       0.00000000 NULL
P        2.10515863       7.40641359       2.70099719       0.00000000 NULL
14
Lattice="3.747355975581682 0.04305623201516825 0.05286521475986594 -0.16530302227592078 8.982507181454446 0.06471292562251778 -0.3721384064853845 -2.544471165632631 10.084836938245672" Properties=species:S:1:pos:R:3:initial_magmoms:R:1:castep_labels:S:1 n_minim_iter=4 pbc="T T T"
P        2.50682127       2.19388752       9.42562968       0.00000000 NULL
P        0.53141978       4.22549746       5.96857503       0.00000000 NULL
P        0.26004217       6.53210896       4.57331211       0.00000000 NULL
P        1.46376894      -0.31135086       4.09497124       0.00000000 NULL
P        0.21630358       6.36581814       0.10503170       0.00000000 NULL
P        2.68520509      -0.17986380       5.87719854       0.00000000 NULL
P        3.01561040       2.03113495       2.95936392       0.00000000 NULL
P        2.09341676       6.02979360       1.09907372       0.00000000 NULL
P        1.53528813       1.38598818       1.52221068       0.00000000 NULL
P        1.07506218      -0.02550932       9.85841427       0.00000000 NULL
P        1.34021608       6.04042763       6.69308891       0.00000000 NULL
P        3.24926369       5.96415140       7.76998603       0.00000000 NULL
P        2.16604412      -0.80626052       7.80895303       0.00000000 NULL
P        2.16391246       7.40215765       2.72313889       0.00000000 NULL
14
Lattice="3.7715060043698356 0.05474959599628094 0.06914880771166153 -0.13805527855757488 8.927041896672955 0.06519698708371098 -0.3392047023398008 -2.5282591234071123 10.048383526607907" Properties=species:S:1:pos:R:3:initial_magmoms:R:1:castep_labels:S:1 n_minim_iter=5 pbc="T T T"
P        2.56947113       2.18716008       9.40524928       0.00000000 NULL
P        0.57159418       4.20227198       5.95128376       0.00000000 NULL
P        0.30233711       6.49517960       4.55964705       0.00000000 NULL
P        1.48371869      -0.30330118       4.08973435       0.00000000 NULL
P        0.23846435       6.33131602       0.10214673       0.00000000 NULL
P        2.73184408      -0.16653218       5.86674027       0.00000000 NULL
P        3.05557045       2.02866888       2.95914546       0.00000000 NULL
P        2.12974321       5.99401537       1.10685387       0.00000000 NULL
P        1.55317994       1.38145512       1.52704634       0.00000000 NULL
P        1.12439915      -0.01653014       9.82749387       0.00000000 NULL
P        1.39789040       6.01217586       6.67235949       0.00000000 NULL
P        3.31965271       5.93761715       7.76280148       0.00000000 NULL
P        2.21064145      -0.79573003       7.79448510       0.00000000 NULL
P        2.21642101       7.36391276       2.72764672       0.00000000 NULL
14
Lattice="3.800598051669003 0.08307147128425516 0.10065668745725537 -0.06992525349196106 8.791990786681378 0.05931435955319571 -0.27730474353993045 -2.497194295129597 9.963890886342408" Properties=species:S:1:pos:R:3:initial_magmoms:R:1:castep_labels:S:1 n_minim_iter=6 pbc="T T T"
P        2.68296807       2.16248964       9.34948444       0.00000000 NULL
P        0.65253248       4.14063413       5.90533513       0.00000000 NULL
P        0.39433034       6.40168350       4.52186302       0.00000000 NULL
P        1.51119812      -0.28653659       4.07576286       0.00000000 NULL
P        0.29112725       6.24698675       0.08989752       0.00000000 NULL
P        2.81259796      -0.13871178       5.83527149       0.00000000 NULL
P        3.12277239       2.02011323       2.95005772       0.00000000 NULL
P        2.19890684       5.90573678       1.11547767       0.00000000 NULL
P        1.58172464       1.36885742       1.53527076       0.00000000 NULL
P        1.21537837      -0.00231338       9.75048147       0.00000000 NULL
P        1.51438813       5.93822154       6.61540595       0.00000000 NULL
P        3.44909684       5.86602134       7.73350563       0.00000000 NULL
P        2.28575033      -0.77707434       7.75717833       0.00000000 NULL
P        2.32337552       7.26842219       2.72821956       0.00000000 NULL
14
Lattice="3.8015514197630726 0.11987253228925088 0.11925858783767705 0.021277476469505778 8.711500798862877 0.05358109493226105 -0.2531479131155823 -2.484150139067451 9.99430217451561" Properties=species:S:1:pos:R:3:initial_magmoms:R:1:castep_labels:S:1 n_minim_iter=7 pbc="T T T"
P        2.75184888       2.15224079       9.38896014       0.00000000 NULL
P        0.71728417       4.10396670       5.92363595       0.00000000 NULL
P        0.48501360       6.34882458       4.53591835       0.00000000 NULL
P        1.50893604      -0.26648195       4.10706350       0.00000000 NULL
P        0.35805614       6.20341121       0.07633522       0.00000000 NULL
P        2.85585621      -0.10514836       5.85644207       0.00000000 NULL
P        3.16296634       2.03053271       2.96035248       0.00000000 NULL
P        2.26102793       5.85602181       1.12708885       0.00000000 NULL
P        1.59639983       1.36617833       1.55747871       0.00000000 NULL
P        1.26431811       0.01546161       9.77721353       0.00000000 NULL
P        1.61434869       5.90547186       6.62725091       0.00000000 NULL
P        3.54075783       5.83489295       7.77932266       0.00000000 NULL
P        2.31607045      -0.76164705       7.80336359       0.00000000 NULL
P        2.42791438       7.22202275       2.75106955       0.00000000 NULL
14
Lattice="3.76164556494434 0.13776653191093224 0.12523315293784498 0.06855467434181063 8.600446283460933 0.03982271608970693 -0.2445622134583975 -2.4692169669076156 9.937962363547934" Properties=species:S:1:pos:R:3:initial_magmoms:R:1:castep_labels:S:1 n_minim_iter=8 pbc="T T T"
P        2.75321279       2.11699333       9.33390861       0.00000000 NULL
P        0.73864727       4.04624897       5.88350049       0.00000000 NULL
P        0.52427226       6.26679309       4.50295598       0.00000000 NULL
P        1.48673681      -0.25812306       4.09436439       0.00000000 NULL
P        0.38807719       6.13225269       0.05959669       0.00000000 NULL
P        2.84527299      -0.09382843       5.82020206       0.00000000 NULL
P        3.14911709       2.01670509       2.93592092       0.00000000 NULL
P        2.26816514       5.78045381       1.11685797       0.00000000 NULL
P        1.58535680       1.35167707       1.55521441       0.00000000 NULL
P        1.26987517       0.01470271       9.71627738       0.00000000 NULL
P        1.64450778       5.83461359       6.57388699       0.00000000 NULL
P        3.54519959       5.76221407       7.73568902       0.00000000 NULL
P        2.30244428      -0.75766544       7.76812354       0.00000000 NULL
P        2.45779972       7.13735683       2.73260515       0.00000000 NULL
14
Lattice="3.7762248911873573 0.1496195397991505 0.1289788682803512 0.09689326934055444 8.622204856207242 0.049598952607379766 -0.24476800202391896 -2.466261852934277 10.004775652593123" Properties=species:S:1:pos:R:3:initial_magmoms:R:1:castep_labels:S:1 n_minim_iter=9 pbc="T T T"
P        2.77897942       2.13669151       9.40275855       0.00000000 NULL
P        0.75774997       4.06369609       5.92940253       0.00000000 NULL
P        0.55067740       6.28945310       4.54301461       0.00000000 NULL
P        1.49052566      -0.24842615       4.12701030       0.00000000 NULL
P        0.40967356       6.15147541       0.06432483       0.00000000 NULL
P        2.86411952      -0.07795991       5.86085165       0.00000000 NULL
P        3.17156327       2.03468638       2.95826940       0.00000000 NULL
P        2.29540796       5.79910154       1.13365599       0.00000000 NULL
P        1.59528848       1.35998771       1.57063039       0.00000000 NULL
P        1.28296931       0.03109098       9.78343070       0.00000000 NULL
P        1.67669409       5.86310304       6.62505141       0.00000000 NULL
P        3.58253125       5.79339760       7.80123754       0.00000000 NULL
P        2.31553337      -0.74657355       7.82577869       0.00000000 NULL
P        2.49688535       7.16504835       2.76273162       0.00000000 NULL
14
Lattice="3.7685390752274763 0.15603102348166345 0.13091250879852706 0.11335272901769587 8.598764887501865 0.0477079426316357 -0.24311439180939223 -2.462337015623669 10.005010222142344" Properties=species:S:1:pos:R:3:initial_magmoms:R:1:castep_labels:S:1 n_minim_iter=10 pbc="T T T"
P        2.78315880       2.13116722       9.40307749       0.00000000 NULL
P        0.76600667       4.05245753       5.92874026       0.00000000 NULL
P        0.56448295       6.27314417       4.54300401       0.00000000 NULL
P        1.48567865      -0.24485378       4.13043401       0.00000000 NULL
P        0.42047770       6.13730762       0.06089147       0.00000000 NULL
P        2.86390392      -0.07285555       5.86041711       0.00000000 NULL
P        3.17161808       2.03448127       2.95663804       0.00000000 NULL
P        2.30166095       5.78399158       1.13432844       0.00000000 NULL
P        1.59409781       1.35781746       1.57271193       0.00000000 NULL
P        1.28595182       0.03337118       9.78259202       0.00000000 NULL
P        1.68898226       5.85027242       6.62229206       0.00000000 NULL
P        3.58949461       5.78083008       7.80338236       0.00000000 NULL
P        2.31390873      -0.74367777       7.82861600       0.00000000 NULL
P        2.51050001       7.14915945       2.76362403       0.00000000 NULL
14
Lattice="3.759634860679199 0.16854550001487797 0.13454365888892356 0.14503695909019906 8.568163203114944 0.04685034607668699 -0.2410678529072503 -2.455973591881446 10.021678300279001" Properties=species:S:1:pos:R:3:initial_magmoms:R:1:castep_labels:S:1 n_minim_iter=11 pbc="T T T"
P        2.79472099       2.12702592       9.41992757       0.00000000 NULL
P        0.78268483       4.03923527       5.93862076       0.00000000 NULL
P        0.59134197       6.25347202       4.55256727       0.00000000 NULL
P        1.47888037      -0.23730749       4.14348661       0.00000000 NULL
P        0.44180963       6.12020296       0.05653343       0.00000000 NULL
P        2.86712475      -0.06168133       5.86950838       0.00000000 NULL
P        3.17633583       2.03836171       2.95926627       0.00000000 NULL
P        2.31718289       5.76537491       1.13922253       0.00000000 NULL
P        1.59429974       1.35638552       1.57933939       0.00000000 NULL
P        1.29287544       0.04032633       9.79763932       0.00000000 NULL
P        1.71457978       5.83708966       6.63020792       0.00000000 NULL
P        3.60798652       5.76873380       7.82210594       0.00000000 NULL
P        2.31377782      -0.73680129       7.84665913       0.00000000 NULL
P        2.53987027       7.13145474       2.77179611       0.00000000 NULL
14
Lattice="3.6545212541483973 0.30588691946375784 0.17170597280322533 0.49329564507677337 8.24326542767264 0.03591961249166429 -0.22499621835261224 -2.391210443495251 10.243280064562404" Properties=species:S:1:pos:R:3:initial_magmoms:R:1:castep_labels:S:1 n_minim_iter=12 pbc="T T T"
P        2.90895984       2.08180617       9.63562405       0.00000000 NULL
P        0.96077915       3.89682326       6.06708051       0.00000000 NULL
P        0.88267037       6.04466732       4.67744015       0.00000000 NULL
P        1.40127608      -0.15839955       4.30406182       0.00000000 NULL
P        0.67483021       5.93985039       0.00424787       0.00000000 NULL
P        2.89158645       0.05936195       5.98791435       0.00000000 NULL
P        3.22075204       2.08530947       2.99232054       0.00000000 NULL
P        2.48145090       5.56854028       1.19827122       0.00000000 NULL
P        1.59207627       1.34060655       1.65592226       0.00000000 NULL
P        1.36079420       0.11409611       9.99910082       0.00000000 NULL
P        1.98807540       5.69740936       6.73772558       0.00000000 NULL
P        3.79990126       5.64067752       8.05555275       0.00000000 NULL
P        2.30198962      -0.66170372       8.07217448       0.00000000 NULL
P        2.85733259       6.94979952       2.86947680       0.00000000 NULL
14
Lattice="3.6143669069270215 0.3072792163078553 0.17477169967085904 0.4996642766935345 8.548670632945882 0.05115250714697441 -0.21241992595814269 -2.463249522929744 10.919088684362524" Properties=species:S:1:pos:R:3:initial_magmoms:R:1:castep_labels:S:1 n_minim_iter=13 pbc="T T T"
P        2.90119038       2.13567217      10.25244659       0.00000000 NULL
P        0.95611973       4.04101177       6.46611700       0.00000000 NULL
P        0.88257030       6.28087914       5.02245170       0.00000000 NULL
P        1.36716636      -0.14282691       4.61095609       0.00000000 NULL
P        0.66404707       6.17606480      -0.00546886       0.00000000 NULL
P        2.87573461       0.06074139       6.35921204       0.00000000 NULL
P        3.20274421       2.17101372       3.16006546       0.00000000 NULL
P        2.46627708       5.74828008       1.30859074       0.00000000 NULL
P        1.57091194       1.37569231       1.76506814       0.00000000 NULL
P        1.35211696       0.14811700      10.65969858       0.00000000 NULL
P        1.98064361       5.91806052       7.17754411       0.00000000 NULL
P        3.78030937       5.83471701       8.60975966       0.00000000 NULL
P        2.28203093      -0.66920994       8.60183315       0.00000000 NULL
P        2.87229808       7.21284173       3.06577603       0.00000000 NULL
14
Lattice="3.499776721067244 0.3013571925133294 0.1731897527645253 0.4932969864506299 8.2845090422105 -0.014209156007436429 -0.19762239738494838 -2.4576460395622317 10.572814250118789" Properties=species:S:1:pos:R:3:initial_magmoms:R:1:castep_labels:S:1 n_minim_iter=14 pbc="T T T"
P        2.82235174       2.00530309       9.90124004       0.00000000 NULL
P        0.93702904       3.87781560       6.22259173       0.00000000 NULL
P        0.86672969       6.05756635       4.81218335       0.00000000 NULL
P        1.32646927      -0.16732109       4.46202853       0.00000000 NULL
P        0.64843656       5.98584338      -0.05098988       0.00000000 NULL
P        2.79050136       0.01991899       6.14862551       0.00000000 NULL
P        3.10680327       2.08805377       3.03881250       0.00000000 NULL
P        2.39634260       5.56324389       1.22593806       0.00000000 NULL
P        1.52403912       1.32360564       1.69952310       0.00000000 NULL
P        1.31976340       0.07859641      10.30604970       0.00000000 NULL
P        1.92991147       5.69015723       6.89510885       0.00000000 NULL
P        3.67443146       5.60347963       8.28457265       0.00000000 NULL
P        2.21700159      -0.70102238       8.32345348       0.00000000 NULL
P        2.79330667       6.97533315       2.91617150       0.00000000 NULL
14
Lattice="3.506825014930586 0.31358750892703513 0.17887559286343838 0.523118175713324 8.288401451846006 -0.017385716172278475 -0.19182256293505554 -2.463666950788317 10.599587431804895" Properties=species:S:1:pos:R:3:initial_magmoms:R:1:castep_labels:S:1 n_minim_iter=15 pbc="T T T"
P        2.84852416       2.00820496       9.92776425       0.00000000 NULL
P        0.96013225       3.87828221       6.23673659       0.00000000 NULL
P        0.89549832       6.06061588       4.82478217       0.00000000 NULL
P        1.33208986      -0.16363722       4.47630375       0.00000000 NULL
P        0.66980059       5.99170932      -0.05443147       0.00000000 NULL
P        2.80470848       0.02656797       6.16649411       0.00000000 NULL
P        3.12446823       2.09966298       3.04787919       0.00000000 NULL
P        2.42183178       5.57011625       1.23273369       0.00000000 NULL
P        1.53288457       1.32707856       1.70486958       0.00000000 NULL
P        1.33595820       0.08007282      10.33347162       0.00000000 NULL
P        1.96292567       5.69571376       6.91031603       0.00000000 NULL
P        3.71148432       5.61308096       8.31019386       0.00000000 NULL
P        2.22956197      -0.69595311       8.34793680       0.00000000 NULL
P        2.82882767       6.98681577       2.92498600       0.00000000 NULL
14
Lattice="3.5044710995179047 0.32480023385519013 0.18282457160849483 0.5510982682786011 8.274889311379003 -0.025160412630842073 -0.18881679498649512 -2.4696761881962526 10.609505537735412" Properties=species:S:1:pos:R:3:initial_magmoms:R:1:castep_labels:S:1 n_minim_iter=16 pbc="T T T"
P        2.86394490       2.00135685       9.93505410       0.00000000 NULL
P        0.97844812       3.86754981       6.23771763       0.00000000 NULL
P        0.91998827       6.04878527       4.82614576       0.00000000 NULL
P        1.33234860      -0.16174524       4.48281000       0.00000000 NULL
P        0.68888552       5.98511995      -0.06128972       0.00000000 NULL
P        2.80943267       0.02970034       6.17219496       0.00000000 NULL
P        3.13271798       2.10535113       3.04880229       0.00000000 NULL
P        2.44025561       5.56418492       1.23380598       0.00000000 NULL
P        1.53710230       1.32661493       1.70605077       0.00000000 NULL
P        1.34519337       0.07654443      10.34270020       0.00000000 NULL
P        1.98809466       5.68565257       6.90960370       0.00000000 NULL
P        3.73566566       5.60638170       8.31738356       0.00000000 NULL
P        2.23340195      -0.69342988       8.35758178       0.00000000 NULL
P        2.85598922       6.98230091       2.92403206       0.00000000 NULL
14
Lattice="3.496092956694714 0.351245478057326 0.1887554692925172 0.6172946192808859 8.24615767091789 -0.044369423671357634 -0.1906061549729211 -2.4859935647325093 10.658287787177304" Properties=species:S:1:pos:R:3:initial_magmoms:R:1:castep_labels:S:1 n_minim_iter=17 pbc="T T T"
P        2.89030273       1.98320211       9.97194771       0.00000000 NULL
P        1.01575273       3.84239169       6.25322469       0.00000000 NULL
P        0.97330433       6.02296124       4.84129476       0.00000000 NULL
P        1.32697058      -0.15714519       4.50824468       0.00000000 NULL
P        0.73343608       5.97256984      -0.07887061       0.00000000 NULL
P        2.81340924       0.03591236       6.19596411       0.00000000 NULL
P        3.14748976       2.11999639       3.05347388       0.00000000 NULL
P        2.48133461       5.55108582       1.23767189       0.00000000 NULL
P        1.54463863       1.32496876       1.71095627       0.00000000 NULL
P        1.35709094       0.06773623      10.38771297       0.00000000 NULL
P        2.04062065       5.66308782       6.92117925       0.00000000 NULL
P        3.78344763       5.59097220       8.35102050       0.00000000 NULL
P        2.23336737      -0.68775681       8.39769269       0.00000000 NULL
P        2.91755747       6.97468851       2.92518900       0.00000000 NULL
14
Lattice="3.4684494830155175 0.3716408477999121 0.18473861764983032 0.6698852275249246 8.21107125228405 -0.06820755149130141 -0.21271952673151887 -2.505446995584392 10.7520943935408" Properties=species:S:1:pos:R:3:initial_magmoms:R:1:castep_labels:S:1 n_minim_iter=18 pbc="T T T"
P        2.87708779       1.95001264      10.03883621       0.00000000 NULL
P        1.02795382       3.80851339       6.28892971       0.00000000 NULL
P        1.00239933       5.99044460       4.87644808       0.00000000 NULL
P        1.30084585      -0.15468965       4.55057505       0.00000000 NULL
P        0.76514754       5.95666138      -0.10103444       0.00000000 NULL
P        2.78836264       0.03314345       6.23271775       0.00000000 NULL
P        3.13598555       2.12907187       3.05663706       0.00000000 NULL
P        2.50018181       5.52720132       1.24009280       0.00000000 NULL
P        1.53919837       1.31674740       1.71729658       0.00000000 NULL
P        1.33736351       0.05357603      10.47184047       0.00000000 NULL
P        2.05917104       5.62917791       6.95140833       0.00000000 NULL
P        3.78596989       5.55986832       8.40876547       0.00000000 NULL
P        2.20193382      -0.68599694       8.46547001       0.00000000 NULL
P        2.95277699       6.95896375       2.92616304       0.00000000 NULL
14
Lattice="3.4231226732005684 0.40989642878213306 0.192669589307971 0.7680556968968733 8.165623494736987 -0.1264596046046099 -0.21277804735449718 -2.5615419179747225 11.029766753520784" Properties=species:S:1:pos:R:3:initial_magmoms:R:1:castep_labels:S:1 n_minim_iter=19 pbc="T T T"
P        2.89671732       1.87199202      10.26272115       0.00000000 NULL
P        1.07402648       3.74147383       6.40687778       0.00000000 NULL
P        1.07568649       5.93897723       4.98900178       0.00000000 NULL
P        1.26440191      -0.15406419       4.67743390       0.00000000 NULL
P        0.82097146       5.94376630      -0.14971546       0.00000000 NULL
P        2.77004799       0.01782215       6.36296006       0.00000000 NULL
P        3.13113467       2.15261590       3.09254565       0.00000000 NULL
P        2.54627774       5.49090259       1.25959523       0.00000000 NULL
P        1.53957712       1.29673559       1.74768623       0.00000000 NULL
P        1.34254167       0.01556073      10.73037919       0.00000000 NULL
P        2.12297152       5.56756087       7.06812174       0.00000000 NULL
P        3.83193880       5.50182195       8.60544446       0.00000000 NULL
P        2.17733233      -0.68741356       8.68088935       0.00000000 NULL
P        3.04151562       6.94977417       2.95086829       0.00000000 NULL
14
Lattice="3.3616845046358597 0.40625353234217754 0.1787121983824942 0.7634817007051681 8.03912571425618 -0.1449145036003192 -0.24033248648434646 -2.5456397040727055 10.8408779720589" Properties=species:S:1:pos:R:3:initial_magmoms:R:1:castep_labels:S:1 n_minim_iter=20 pbc="T T T"
P        2.82272147       1.81391496      10.06889957       0.00000000 NULL
P        1.04004455       3.66652671       6.27989986       0.00000000 NULL
P        1.04948327       5.83844750       4.89425711       0.00000000 NULL
P        1.22132990      -0.15787779       4.59370704       0.00000000 NULL
P        0.80964272       5.85486085      -0.15845150       0.00000000 NULL
P        2.70302244       0.00384507       6.23332265       0.00000000 NULL
P        3.06843142       2.12075483       3.01422929       0.00000000 NULL
P        2.50567191       5.40088281       1.21962005       0.00000000 NULL
P        1.51175316       1.26812679       1.71004513       0.00000000 NULL
P        1.29030419      -0.00357880      10.53620703       0.00000000 NULL
P        2.07291309       5.46355298       6.92197216       0.00000000 NULL
P        3.74859685       5.39866916       8.43467735       0.00000000 NULL
P        2.11272987      -0.68627814       8.52437976       0.00000000 NULL
P        2.99573887       6.84560972       2.87187781       0.00000000 NULL
14
Lattice="3.4056430584071022 0.410518818496686 0.17905549514134572 0.7708684764237919 8.142043733732939 -0.1298155805630262 -0.24816786977859864 -2.5595621883806143 10.988943630714182" Properties=species:S:1:pos:R:3:initial_magmoms:R:1:castep_labels:S:1 n_minim_iter=21 pbc="T T T"
P        2.85444563       1.85157419      10.21169631       0.00000000 NULL
P        1.04829764       3.72192853       6.37489410       0.00000000 NULL
P        1.05853318       5.92131474       4.97671338       0.00000000 NULL
P        1.23298507      -0.15117131       4.65714137       0.00000000 NULL
P        0.81781840       5.93111873      -0.14830947       0.00000000 NULL
P        2.73556728       0.01393520       6.31860406       0.00000000 NULL
P        3.10655957       2.15372446       3.05837823       0.00000000 NULL
P        2.53643018       5.47042274       1.24830211       0.00000000 NULL
P        1.53069386       1.28510431       1.73466430       0.00000000 NULL
P        1.30159100       0.01433898      10.68420800       0.00000000 NULL
P        2.09532152       5.54491150       7.02982357       0.00000000 NULL
P        3.79234223       5.48044847       8.56495050       0.00000000 NULL
P        2.13588616      -0.67913619       8.64192429       0.00000000 NULL
P        3.03357846       6.93909196       2.92413880       0.00000000 NULL
