12
Lattice="5.469327620038509 0.0 0.0 0.0 5.469327620038509 0.0 0.0 0.0 8.490674120130903" Properties=species:S:1:pos:R:3:initial_magmoms:R:1:castep_labels:S:1:forces:R:3 n_minim_iter=1 energy=-62.206706992419 stress="-0.003028668596387581 0.0 0.0 0.0 -0.003028668596387581 -0.0 0.0 -0.0 0.0012019944825947227" free_energy=-62.206706992419 pbc="T T T"
P        0.94052618       3.51235938       6.10528657       0.00000000 NULL       0.05392900      -0.05025800       0.01256300
P        4.52880144       1.95696824       6.10528657       0.00000000 NULL      -0.05392900       0.05025800       0.01256300
P        1.95696824       0.94052618       2.38538755       0.00000000 NULL       0.05025800       0.05392900      -0.01256300
P        3.51235938       4.52880144       2.38538755       0.00000000 NULL      -0.05025800      -0.05392900      -0.01256300
P        3.71804430       6.21604254       0.95439962       0.00000000 NULL       0.20876800       0.09442400       0.03170100
P        1.75128332      -0.74671491       0.95439962       0.00000000 NULL      -0.20876800      -0.09442400       0.03170100
P       -0.74671491       3.71804430       7.53627450       0.00000000 NULL      -0.09442400       0.20876800      -0.03170100
P        6.21604254       1.75128332       7.53627450       0.00000000 NULL       0.09442400      -0.20876800      -0.03170100
P        5.66222576       3.78212299       2.62556929       0.00000000 NULL       0.01865100      -0.03693000       0.01699100
P       -0.19289814       1.68720463       2.62556929       0.00000000 NULL      -0.01865100       0.03693000       0.01699100
P        1.68720463       5.66222576       5.86510483       0.00000000 NULL       0.03693000       0.01865100      -0.01699100
P        3.78212299      -0.19289814       5.86510483       0.00000000 NULL      -0.03693000      -0.01865100      -0.01699100
12
Lattice="5.487002779578963 0.0 0.0 0.0 5.487002779578963 0.0 0.0 0.0 8.47980877665911" Properties=species:S:1:pos:R:3:initial_magmoms:R:1:castep_labels:S:1:forces:R:3 n_minim_iter=2 energy=-62.209920602433 stress="0.0009222363356602616 -0.0 0.0 -0.0 0.0009222363356602616 -0.0 0.0 -0.0 0.0021457221789681377" free_energy=-62.209920602433 pbc="T T T"
P        0.94379260       3.52349874       6.09752638       0.00000000 NULL      -0.00041600      -0.05287600       0.04664100
P        4.54321018       1.96350404       6.09752638       0.00000000 NULL       0.00041600       0.05287600       0.04664100
P        1.96350404       0.94379260       2.38228239       0.00000000 NULL       0.05287600      -0.00041600      -0.04664100
P        3.52349874       4.54321018       2.38228239       0.00000000 NULL      -0.05287600       0.00041600      -0.04664100
P        3.73093834       6.23652817       0.95331109       0.00000000 NULL       0.17986600       0.06328700       0.08593800
P        1.75606444      -0.74952539       0.95331109       0.00000000 NULL      -0.17986600      -0.06328700       0.08593800
P       -0.74952539       3.73093834       7.52649769       0.00000000 NULL      -0.06328700       0.17986600      -0.08593800
P        6.23652817       1.75606444       7.52649769       0.00000000 NULL       0.06328700      -0.17986600      -0.08593800
P        5.68060278       3.79419023       2.62228058       0.00000000 NULL      -0.00833100      -0.08646600      -0.00477100
P       -0.19360000       1.69281255       2.62228058       0.00000000 NULL       0.00833100       0.08646600      -0.00477100
P        1.69281255       5.68060278       5.85752820       0.00000000 NULL       0.08646600      -0.00833100       0.00477100
P        3.79419023      -0.19360000       5.85752820       0.00000000 NULL      -0.08646600       0.00833100       0.00477100
12
Lattice="5.493700572516851 0.0 0.0 0.0 5.493700572516851 0.0 0.0 0.0 8.395507947349296" Properties=species:S:1:pos:R:3:initial_magmoms:R:1:castep_labels:S:1:forces:R:3 n_minim_iter=3 energy=-62.213839988004 stress="3.334876009375689e-05 -0.0 -0.0 -0.0 3.334876009375689e-05 0.0 -0.0 0.0 -0.002420093867111558" free_energy=-62.213839988004 pbc="T T T"
P        0.94527015       3.52670066       6.03766760       0.00000000 NULL       0.02170500      -0.01989400      -0.02537200
P        4.54843042       1.96699991       6.03766760       0.00000000 NULL      -0.02170500       0.01989400      -0.02537200
P        1.96699991       0.94527015       2.35784034       0.00000000 NULL       0.01989400       0.02170500       0.02537200
P        3.52670066       4.54843042       2.35784034       0.00000000 NULL      -0.01989400      -0.02170500       0.02537200
P        3.73946385       6.24566718       0.94528402       0.00000000 NULL       0.23388800       0.11708300       0.00261800
P        1.75423672      -0.75196661       0.94528402       0.00000000 NULL      -0.23388800      -0.11708300       0.00261800
P       -0.75196661       3.73946385       7.45022393       0.00000000 NULL      -0.11708300       0.23388800      -0.00261900
P        6.24566718       1.75423672       7.45022393       0.00000000 NULL       0.11708300      -0.23388800      -0.00261900
P        5.68752716       3.79730272       2.59624457       0.00000000 NULL      -0.01269500      -0.06291000      -0.01725600
P       -0.19382658       1.69639785       2.59624457       0.00000000 NULL       0.01269500       0.06291000      -0.01725600
P        1.69639785       5.68752716       5.79926337       0.00000000 NULL       0.06291000      -0.01269500       0.01725600
P        3.79730272      -0.19382658       5.79926337       0.00000000 NULL      -0.06291000       0.01269500       0.01725600
12
Lattice="5.489993101228461 0.0 0.0 0.0 5.489993101228461 0.0 0.0 0.0 8.307043384664553" Properties=species:S:1:pos:R:3:initial_magmoms:R:1:castep_labels:S:1:forces:R:3 n_minim_iter=4 energy=-62.262918678124 stress="-0.0017745419615412183 -0.0 -0.0 -0.0 -0.0017745419615412183 -0.0 -0.0 -0.0 -0.00019307080445847961" free_energy=-62.262918678124 pbc="T T T"
P        0.95034057       3.51075014       5.97813423       0.00000000 NULL      -0.04326100       0.05106000       0.15862600
P        4.53965253       1.97924296       5.97813423       0.00000000 NULL       0.04326100      -0.05106000       0.15862600
P        1.97924296       0.95034057       2.32890915       0.00000000 NULL      -0.05106000      -0.04326100      -0.15862600
P        3.51075014       4.53965253       2.32890915       0.00000000 NULL       0.05106000       0.04326100      -0.15862600
P        3.80920830       6.27297401       0.95017461       0.00000000 NULL       0.19688000       0.09036400       0.16206900
P        1.68078480      -0.78298091       0.95017461       0.00000000 NULL      -0.19688000      -0.09036400       0.16206900
P       -0.78298091       3.80920830       7.35686878       0.00000000 NULL      -0.09036400       0.19688000      -0.16206900
P        6.27297401       1.68078480       7.35686878       0.00000000 NULL       0.09036400      -0.19688000      -0.16206900
P        5.68143624       3.77029485       2.56654673       0.00000000 NULL       0.12599900       0.66776400      -0.03931400
P       -0.19144314       1.71969825       2.56654673       0.00000000 NULL      -0.12599900      -0.66776400      -0.03931400
P        1.71969825       5.68143624       5.74049665       0.00000000 NULL      -0.66776400       0.12599900       0.03931400
P        3.77029485      -0.19144314       5.74049665       0.00000000 NULL       0.66776400      -0.12599900       0.03931400
12
Lattice="5.473543369750411 0.0 0.0 0.0 5.473543369750411 0.0 0.0 0.0 8.190311303766808" Properties=species:S:1:pos:R:3:initial_magmoms:R:1:castep_labels:S:1:forces:R:3 n_minim_iter=5 energy=-62.333932612348 stress="-0.00429197214170099 0.0 -0.0 0.0 -0.00429197214170099 0.0 -0.0 0.0 -0.004369240355274094" free_energy=-62.333932612348 pbc="T T T"
P        0.95200641       3.48424695       5.90715691       0.00000000 NULL      -0.06625400       0.18793200       0.28888600
P        4.52153696       1.98929642       5.90715691       0.00000000 NULL       0.06625400      -0.18793200       0.28888600
P        1.98929642       0.95200641       2.28315440       0.00000000 NULL      -0.18793200      -0.06625400      -0.28888600
P        3.48424695       4.52153696       2.28315440       0.00000000 NULL       0.18793200       0.06625400      -0.28888600
P        3.90463814       6.30065241       0.96487208       0.00000000 NULL       0.02209200       0.03860800      -0.03815700
P        1.56890523      -0.82710904       0.96487208       0.00000000 NULL      -0.02209200      -0.03860800      -0.03815700
P       -0.82710904       3.90463814       7.22543922       0.00000000 NULL      -0.03860800       0.02209200       0.03815700
P        6.30065241       1.56890523       7.22543922       0.00000000 NULL       0.03860800      -0.02209200       0.03815700
P        5.66662063       3.75606174       2.52507557       0.00000000 NULL       0.04072300       0.97420000       0.22304600
P       -0.19307726       1.71748163       2.52507557       0.00000000 NULL      -0.04072300      -0.97420000       0.22304600
P        1.71748163       5.66662063       5.66523574       0.00000000 NULL      -0.97420000       0.04072300      -0.22304600
P        3.75606174      -0.19307726       5.66523574       0.00000000 NULL       0.97420000      -0.04072300      -0.22304600
12
Lattice="5.454928195906396 0.0 0.0 0.0 5.454928195906396 0.0 0.0 0.0 8.16296408357149" Properties=species:S:1:pos:R:3:initial_magmoms:R:1:castep_labels:S:1:forces:R:3 n_minim_iter=6 energy=-62.405362597962 stress="-0.004370950525921082 0.0 0.0 0.0 -0.004370950525921082 -0.0 0.0 -0.0 -0.005347240633971307" free_energy=-62.405362597962 pbc="T T T"
P        0.94682724       3.47038927       5.92533886       0.00000000 NULL      -0.04107600       0.18567500       0.30528400
P        4.50810096       1.98453893       5.92533886       0.00000000 NULL       0.04107600      -0.18567500       0.30528400
P        1.98453893       0.94682724       2.23762522       0.00000000 NULL      -0.18567500      -0.04107600      -0.30528400
P        3.47038927       4.50810096       2.23762522       0.00000000 NULL       0.18567500       0.04107600      -0.30528400
P        3.96475917       6.31022699       0.96568857       0.00000000 NULL      -0.16687200      -0.06056800      -0.11974900
P        1.49016902      -0.85529880       0.96568857       0.00000000 NULL       0.16687200       0.06056800      -0.11974900
P       -0.85529880       3.96475917       7.19727551       0.00000000 NULL       0.06056800      -0.16687200       0.11974900
P        6.31022699       1.49016902       7.19727551       0.00000000 NULL      -0.06056800       0.16687200       0.11974900
P        5.62698680       3.74926830       2.55551045       0.00000000 NULL       0.13933500       1.09352000       0.30461900
P       -0.17205860       1.70565989       2.55551045       0.00000000 NULL      -0.13933500      -1.09352000       0.30461900
P        1.70565989       5.62698680       5.60745363       0.00000000 NULL      -1.09352000       0.13933500      -0.30461900
P        3.74926830      -0.17205860       5.60745363       0.00000000 NULL       1.09352000      -0.13933500      -0.30461900
12
Lattice="5.396616818225597 0.0 0.0 0.0 5.396616818225597 0.0 0.0 0.0 8.22551060226571" Properties=species:S:1:pos:R:3:initial_magmoms:R:1:castep_labels:S:1:forces:R:3 n_minim_iter=7 energy=-62.523179695408 stress="-0.0036496349704019855 -0.0 -0.0 -0.0 -0.0036496349704019855 0.0 -0.0 0.0 -0.004532186326865387" free_energy=-62.523179695408 pbc="T T T"
P        0.95077759       3.41354296       6.02416799       0.00000000 NULL      -0.07346200       0.32537000       0.23857100
P        4.44583923       1.98307386       6.02416799       0.00000000 NULL       0.07346200      -0.32537000       0.23857100
P        1.98307386       0.95077759       2.20134261       0.00000000 NULL      -0.32537000      -0.07346200      -0.23857100
P        3.41354296       4.44583923       2.20134261       0.00000000 NULL       0.32537000       0.07346200      -0.23857100
P        3.98814590       6.26156798       0.96216660       0.00000000 NULL      -0.24963500      -0.07230900      -0.03843900
P        1.40847092      -0.86495116       0.96216660       0.00000000 NULL       0.24963500       0.07230900      -0.03843900
P       -0.86495116       3.98814590       7.26334400       0.00000000 NULL       0.07230900      -0.24963500       0.03843900
P        6.26156798       1.40847092       7.26334400       0.00000000 NULL      -0.07230900       0.24963500       0.03843900
P        5.58177201       3.72701611       2.64915301       0.00000000 NULL      -0.02973600       0.97323400       0.17157000
P       -0.18515520       1.66960071       2.64915301       0.00000000 NULL       0.02973600      -0.97323400       0.17157000
P        1.66960071       5.58177201       5.57635759       0.00000000 NULL      -0.97323400      -0.02973600      -0.17157000
P        3.72701611      -0.18515520       5.57635759       0.00000000 NULL       0.97323400       0.02973600      -0.17157000
12
Lattice="5.370325910719103 0.0 0.0 0.0 5.370325910719103 0.0 0.0 0.0 8.345390011062886" Properties=species:S:1:pos:R:3:initial_magmoms:R:1:castep_labels:S:1:forces:R:3 n_minim_iter=8 energy=-62.650626521933 stress="-0.0018588658242618089 -0.0 0.0 -0.0 -0.0018588658242618089 -0.0 0.0 -0.0 0.001918321277871971" free_energy=-62.650626521933 pbc="T T T"
P        0.95769652       3.44420956       6.16899249       0.00000000 NULL      -0.08512400      -0.08174100       0.23708100
P        4.41262939       1.92611635       6.16899249       0.00000000 NULL       0.08512400       0.08174100       0.23708100
P        1.92611635       0.95769652       2.17639752       0.00000000 NULL       0.08174100      -0.08512400      -0.23708100
P        3.44420956       4.41262939       2.17639752       0.00000000 NULL      -0.08174000       0.08512400      -0.23708100
P        3.99996039       6.24179300       0.98598020       0.00000000 NULL      -0.12922300       0.05396800       0.23949700
P        1.37036552      -0.87146709       0.98598020       0.00000000 NULL       0.12922300      -0.05396800       0.23949700
P       -0.87146709       3.99996039       7.35940982       0.00000000 NULL      -0.05396800      -0.12922300      -0.23949700
P        6.24179300       1.37036552       7.35940982       0.00000000 NULL       0.05396800       0.12922300      -0.23949700
P        5.51728141       3.73793486       2.75054596       0.00000000 NULL       0.35632400       0.59539400      -0.10602800
P       -0.14695550       1.63239105       2.75054596       0.00000000 NULL      -0.35632400      -0.59539400      -0.10602800
P        1.63239105       5.51728141       5.59484406       0.00000000 NULL      -0.59539400       0.35632400       0.10602800
P        3.73793486      -0.14695550       5.59484406       0.00000000 NULL       0.59539400      -0.35632400       0.10602800
12
Lattice="5.39605696989721 0.0 0.0 0.0 5.39605696989721 0.0 0.0 0.0 8.637692766996064" Properties=species:S:1:pos:R:3:initial_magmoms:R:1:castep_labels:S:1:forces:R:3 n_minim_iter=9 energy=-62.730294507779 stress="0.003817143674144612 0.0 0.0 0.0 0.003817143674144612 0.0 0.0 0.0 0.0036847420196833235" free_energy=-62.730294507779 pbc="T T T"
P        0.94396688       3.46675631       6.46398276       0.00000000 NULL       0.08990800       0.09831500       0.02260400
P        4.45209009       1.92930066       6.46398276       0.00000000 NULL      -0.08990800      -0.09831500       0.02260400
P        1.92930066       0.94396688       2.17371001       0.00000000 NULL      -0.09831500       0.08990800      -0.02260400
P        3.46675631       4.45209009       2.17371001       0.00000000 NULL       0.09831500      -0.08990800      -0.02260400
P        3.99877649       6.31077907       1.06529633       0.00000000 NULL       0.03753800       0.20168200       0.16308900
P        1.39728048      -0.91472210       1.06529633       0.00000000 NULL      -0.03753800      -0.20168200       0.16308900
P       -0.91472210       3.99877649       7.57239643       0.00000000 NULL      -0.20168200       0.03753800      -0.16308900
P        6.31077907       1.39728048       7.57239643       0.00000000 NULL       0.20168200      -0.03753800      -0.16308900
P        5.55928020       3.75749117       2.86253385       0.00000000 NULL       0.17767700       0.44752100      -0.20104800
P       -0.16322323       1.63856580       2.86253385       0.00000000 NULL      -0.17767700      -0.44752100      -0.20104800
P        1.63856580       5.55928020       5.77515891       0.00000000 NULL      -0.44752100       0.17767700       0.20104800
P        3.75749117      -0.16322323       5.77515891       0.00000000 NULL       0.44752100      -0.17767700       0.20104800
12
Lattice="5.365478816273367 0.0 0.0 0.0 5.365478816273367 0.0 0.0 0.0 8.743840353776099" Properties=species:S:1:pos:R:3:initial_magmoms:R:1:castep_labels:S:1:forces:R:3 n_minim_iter=10 energy=-62.793303561825 stress="0.006097110986677103 -0.0 0.0 -0.0 0.006097110986677103 -0.0 0.0 -0.0 0.0021964012342657446" free_energy=-62.793303561825 pbc="T T T"
P        0.95985549       3.47346849       6.59986782       0.00000000 NULL      -0.23685200       0.13325600      -0.00461100
P        4.40562332       1.89201032       6.59986782       0.00000000 NULL       0.23685200      -0.13325600      -0.00461100
P        1.89201032       0.95985549       2.14397253       0.00000000 NULL      -0.13325600      -0.23685200       0.00461100
P        3.47346849       4.40562332       2.14397253       0.00000000 NULL       0.13325600       0.23685200       0.00461100
P        3.95831645       6.34910524       1.09812242       0.00000000 NULL       0.07439300      -0.06308600       0.17881000
P        1.40716236      -0.98362643       1.09812242       0.00000000 NULL      -0.07439300       0.06308600       0.17881000
P       -0.98362643       3.95831645       7.64571793       0.00000000 NULL       0.06308600       0.07439300      -0.17881000
P        6.34910524       1.40716236       7.64571793       0.00000000 NULL      -0.06308600      -0.07439300      -0.17881000
P        5.55050529       3.74982639       2.90952878       0.00000000 NULL       0.02089200       0.26130700      -0.13001700
P       -0.18502647       1.61565242       2.90952878       0.00000000 NULL      -0.02089200      -0.26130700      -0.13001700
P        1.61565242       5.55050529       5.83431157       0.00000000 NULL      -0.26130700       0.02089200       0.13001700
P        3.74982639      -0.18502647       5.83431157       0.00000000 NULL       0.26130700      -0.02089200       0.13001700
12
Lattice="5.349666714225322 0.0 0.0 0.0 5.349666714225322 0.0 0.0 0.0 8.749472234678011" Properties=species:S:1:pos:R:3:initial_magmoms:R:1:castep_labels:S:1:forces:R:3 n_minim_iter=11 energy=-62.821314676571 stress="0.003946076994900511 -0.0 -0.0 -0.0 0.003946076994900511 0.0 -0.0 0.0 -0.0007965636245348203" free_energy=-62.821314676571 pbc="T T T"
P        0.93141667       3.49269996       6.60680989       0.00000000 NULL      -0.04790800       0.00000400      -0.00131500
P        4.41825005       1.85696676       6.60680989       0.00000000 NULL       0.04790800      -0.00000400      -0.00131500
P        1.85696676       0.93141667       2.14266234       0.00000000 NULL      -0.00000400      -0.04790800       0.00131500
P        3.49269996       4.41825005       2.14266234       0.00000000 NULL       0.00000400       0.04790800       0.00131500
P        3.95366237       6.35181660       1.10413431       0.00000000 NULL      -0.04920900      -0.02050600       0.08809100
P        1.39600435      -1.00214989       1.10413431       0.00000000 NULL       0.04920900       0.02050600       0.08809100
P       -1.00214989       3.95366237       7.64533793       0.00000000 NULL       0.02050600      -0.04920900      -0.08809100
P        6.35181660       1.39600435       7.64533793       0.00000000 NULL      -0.02050600       0.04920900      -0.08809100
P        5.55829066       3.74847621       2.91858408       0.00000000 NULL      -0.12913100       0.05302300      -0.04380200
P       -0.20862394       1.60119050       2.91858408       0.00000000 NULL       0.12913100      -0.05302300      -0.04380200
P        1.60119050       5.55829066       5.83088815       0.00000000 NULL      -0.05302300      -0.12913100       0.04380200
P        3.74847621      -0.20862394       5.83088815       0.00000000 NULL       0.05302300       0.12913100       0.04380200
12
Lattice="5.338285302504152 0.0 0.0 0.0 5.338285302504152 0.0 0.0 0.0 8.808663418805676" Properties=species:S:1:pos:R:3:initial_magmoms:R:1:castep_labels:S:1:forces:R:3 n_minim_iter=12 energy=-62.831790351369 stress="0.001813220336342987 0.0 -0.0 0.0 0.001813220336342987 0.0 -0.0 0.0 -0.0016516813508462207" free_energy=-62.831790351369 pbc="T T T"
P        0.92630432       3.47617194       6.64338496       0.00000000 NULL       0.01834500       0.06364400       0.01133500
P        4.41198098       1.86211336       6.64338496       0.00000000 NULL      -0.01834500      -0.06364400       0.01133500
P        1.86211336       0.92630432       2.16527846       0.00000000 NULL      -0.06364400       0.01834500      -0.01133500
P        3.47617194       4.41198098       2.16527846       0.00000000 NULL       0.06364400      -0.01834500      -0.01133500
P        3.93929991       6.34697718       1.12919974       0.00000000 NULL       0.03583300      -0.01531200       0.03549700
P        1.39898540      -1.00869188       1.12919974       0.00000000 NULL      -0.03583300       0.01531200       0.03549700
P       -1.00869188       3.93929991       7.67946367       0.00000000 NULL       0.01531200       0.03583300      -0.03549700
P        6.34697718       1.39898540       7.67946367       0.00000000 NULL      -0.01531200      -0.03583300      -0.03549700
P        5.53495442       3.75250027       2.94035092       0.00000000 NULL      -0.05955300      -0.11904200       0.00458500
P       -0.19666912       1.58578503       2.94035092       0.00000000 NULL       0.05955300       0.11904200       0.00458500
P        1.58578503       5.53495442       5.86831250       0.00000000 NULL       0.11904200      -0.05955300      -0.00458600
P        3.75250027      -0.19666912       5.86831250       0.00000000 NULL      -0.11904200       0.05955300      -0.00458600
12
Lattice="5.297072441774057 0.0 0.0 0.0 5.297072441774057 0.0 0.0 0.0 9.275975967419624" Properties=species:S:1:pos:R:3:initial_magmoms:R:1:castep_labels:S:1:forces:R:3 n_minim_iter=13 energy=-62.863010449389 stress="-0.0006596885202971721 0.0 -0.0 0.0 -0.0006596885202971721 0.0 -0.0 0.0 -0.000496668229579589" free_energy=-62.863010449389 pbc="T T T"
P        0.95707109       3.47925640       7.04259834       0.00000000 NULL       0.05947800       0.02083500      -0.06290900
P        4.34000135       1.81781605       7.04259834       0.00000000 NULL      -0.05947800      -0.02083600      -0.06290900
P        1.81781605       0.95707109       2.23337763       0.00000000 NULL      -0.02083600       0.05947800       0.06290900
P        3.47925640       4.34000135       2.23337763       0.00000000 NULL       0.02083500      -0.05947800       0.06290900
P        3.92854194       6.30708666       1.31790673       0.00000000 NULL       0.10033000       0.16825600      -0.09773900
P        1.36853051      -1.01001422       1.31790673       0.00000000 NULL      -0.10033000      -0.16825600      -0.09773900
P       -1.01001422       3.92854194       7.95806924       0.00000000 NULL      -0.16825600       0.10033000       0.09773900
P        6.30708666       1.36853051       7.95806924       0.00000000 NULL       0.16825600      -0.10033000       0.09773900
P        5.47906973       3.73703908       3.14373621       0.00000000 NULL      -0.04856300      -0.06309000       0.12989000
P       -0.18199729       1.56003336       3.14373621       0.00000000 NULL       0.04856400       0.06309000       0.12989000
P        1.56003336       5.47906973       6.13223976       0.00000000 NULL       0.06309000      -0.04856300      -0.12989000
P        3.73703908      -0.18199729       6.13223976       0.00000000 NULL      -0.06309000       0.04856400      -0.12989000
12
Lattice="5.23108452025667 0.0 0.0 0.0 5.23108452025667 0.0 0.0 0.0 9.759592524752033" Properties=species:S:1:pos:R:3:initial_magmoms:R:1:castep_labels:S:1:forces:R:3 n_minim_iter=14 energy=-62.911890087287 stress="0.0030448138501511773 0.0 -0.0 0.0 0.0030448138501511773 -0.0 -0.0 -0.0 0.0056134870524775435" free_energy=-62.911890087287 pbc="T T T"
P        0.96351772       3.46595287       7.46543796       0.00000000 NULL       0.12541000       0.20154800      -0.10579800
P        4.26756680       1.76513165       7.46543796       0.00000000 NULL      -0.12541000      -0.20154800      -0.10579800
P        1.76513165       0.96351772       2.29415457       0.00000000 NULL      -0.20154800       0.12541000       0.10579800
P        3.46595287       4.26756680       2.29415457       0.00000000 NULL       0.20154800      -0.12541000       0.10579800
P        3.91797699       6.30059580       1.54215798       0.00000000 NULL       0.02137600       0.13158500       0.06846300
P        1.31310753      -1.06951128       1.54215798       0.00000000 NULL      -0.02137600      -0.13158500       0.06846300
P       -1.06951128       3.91797699       8.21743455       0.00000000 NULL      -0.13158500       0.02137600      -0.06846300
P        6.30059580       1.31310753       8.21743455       0.00000000 NULL       0.13158500      -0.02137600      -0.06846300
P        5.39349119       3.71234541       3.44328188       0.00000000 NULL      -0.05618000      -0.09228400      -0.08351600
P       -0.16240667       1.51873911       3.44328188       0.00000000 NULL       0.05618000       0.09228400      -0.08351600
P        1.51873911       5.39349119       6.31631064       0.00000000 NULL       0.09228400      -0.05618000       0.08351600
P        3.71234541      -0.16240667       6.31631064       0.00000000 NULL      -0.09228400       0.05618000       0.08351600
12
Lattice="5.204342507951853 0.0 0.0 0.0 5.204342507951853 0.0 0.0 0.0 9.882843397723908" Properties=species:S:1:pos:R:3:initial_magmoms:R:1:castep_labels:S:1:forces:R:3 n_minim_iter=15 energy=-62.937212348544 stress="0.004623603860170274 0.0 0.0 0.0 0.004623603860170274 -0.0 0.0 -0.0 0.008643984395866796" free_energy=-62.937212348544 pbc="T T T"
P        0.96889637       3.47891307       7.55173125       0.00000000 NULL       0.05320600       0.14738400      -0.02703800
P        4.23544614       1.72542943       7.55173125       0.00000000 NULL      -0.05320600      -0.14738400      -0.02703800
P        1.72542943       0.96889637       2.33111215       0.00000000 NULL      -0.14738400       0.05320600       0.02703800
P        3.47891307       4.23544614       2.33111215       0.00000000 NULL       0.14738400      -0.05320600       0.02703800
P        3.90052305       6.30887295       1.64042562       0.00000000 NULL      -0.07966200       0.01272000       0.10311600
P        1.30381945      -1.10453044       1.64042562       0.00000000 NULL       0.07966200      -0.01272000       0.10311600
P       -1.10453044       3.90052305       8.24241778       0.00000000 NULL      -0.01272000      -0.07966200      -0.10311600
P        6.30887295       1.30381945       8.24241778       0.00000000 NULL       0.01272000       0.07966200      -0.10311600
P        5.36378668       3.69696124       3.55182818       0.00000000 NULL      -0.03912100      -0.05524600      -0.11820000
P       -0.15944417       1.50738127       3.55182818       0.00000000 NULL       0.03912100       0.05524600      -0.11820000
P        1.50738127       5.36378668       6.33101522       0.00000000 NULL       0.05524600      -0.03912100       0.11820000
P        3.69696124      -0.15944417       6.33101522       0.00000000 NULL      -0.05524600       0.03912100       0.11820000
12
Lattice="5.206546696922581 0.0 0.0 0.0 5.206546696922581 0.0 0.0 0.0 9.657761734764852" Properties=species:S:1:pos:R:3:initial_magmoms:R:1:castep_labels:S:1:forces:R:3 n_minim_iter=16 energy=-62.96121085854 stress="0.002655002629184173 0.0 -0.0 0.0 0.002655002629184173 0.0 -0.0 0.0 0.004372280437892272" free_energy=-62.96121085854 pbc="T T T"
P        0.96492566       3.49743141       7.33939345       0.00000000 NULL      -0.08475400      -0.06286100       0.16720600
P        4.24162104       1.70911528       7.33939345       0.00000000 NULL       0.08475300       0.06286200       0.16720600
P        1.70911528       0.96492566       2.31836828       0.00000000 NULL       0.06286200      -0.08475400      -0.16720600
P        3.49743141       4.24162104       2.31836828       0.00000000 NULL      -0.06286200       0.08475300      -0.16720600
P        3.88654922       6.32766591       1.58880350       0.00000000 NULL      -0.12873500      -0.14752900       0.16344300
P        1.31999748      -1.12111921       1.58880350       0.00000000 NULL       0.12873500       0.14752900       0.16344300
P       -1.12111921       3.88654922       8.06895823       0.00000000 NULL       0.14752900      -0.12873500      -0.16344300
P        6.32766591       1.31999748       8.06895823       0.00000000 NULL      -0.14752800       0.12873500      -0.16344300
P        5.37191536       3.68922079       3.47960460       0.00000000 NULL       0.06304900       0.04765600       0.00738100
P       -0.16536866       1.51732591       3.47960460       0.00000000 NULL      -0.06304900      -0.04765600       0.00738100
P        1.51732591       5.37191536       6.17815713       0.00000000 NULL      -0.04765600       0.06304900      -0.00738100
P        3.68922079      -0.16536866       6.17815713       0.00000000 NULL       0.04765600      -0.06304900      -0.00738100
12
Lattice="5.1597349970487025 0.0 0.0 0.0 5.1597349970487025 0.0 0.0 0.0 9.800538177191902" Properties=species:S:1:pos:R:3:initial_magmoms:R:1:castep_labels:S:1:forces:R:3 n_minim_iter=17 energy=-63.0130835597 stress="0.001306883670934803 -0.0 0.0 -0.0 0.001306883670934803 -0.0 0.0 -0.0 0.004855579317704364" free_energy=-63.0130835597 pbc="T T T"
P        0.98403572       3.52053734       7.50629742       0.00000000 NULL       0.11813500       0.14560500       0.04674600
P        4.17569928       1.63919766       7.50629742       0.00000000 NULL      -0.11813500      -0.14560500       0.04674600
P        1.63919766       0.98403572       2.29424076       0.00000000 NULL      -0.14560500       0.11813500      -0.04674600
P        3.52053734       4.17569928       2.29424076       0.00000000 NULL       0.14560500      -0.11813500      -0.04674600
P        3.83533542       6.31546200       1.73798934       0.00000000 NULL      -0.13423600      -0.08347900      -0.10311300
P        1.32439958      -1.15572700       1.73798934       0.00000000 NULL       0.13423600       0.08347900      -0.10311300
P       -1.15572700       3.83533542       8.06254884       0.00000000 NULL       0.08347900      -0.13423600       0.10311300
P        6.31546200       1.32439958       8.06254884       0.00000000 NULL      -0.08347900       0.13423600       0.10311300
P        5.33343392       3.66302202       3.61750521       0.00000000 NULL      -0.17206600       0.09296700       0.08817700
P       -0.17369893       1.49671297       3.61750521       0.00000000 NULL       0.17206600      -0.09296700       0.08817700
P        1.49671297       5.33343392       6.18303297       0.00000000 NULL      -0.09296700      -0.17206600      -0.08817700
P        3.66302202      -0.17369893       6.18303297       0.00000000 NULL       0.09296700       0.17206600      -0.08817700
12
Lattice="5.116117109592656 0.0 0.0 0.0 5.116117109592656 0.0 0.0 0.0 9.789514097974987" Properties=species:S:1:pos:R:3:initial_magmoms:R:1:castep_labels:S:1:forces:R:3 n_minim_iter=18 energy=-63.055131480099 stress="-0.0001717159390344437 -0.0 -0.0 -0.0 -0.0001717159390344437 -0.0 -0.0 -0.0 0.006210419145978902" free_energy=-63.055131480099 pbc="T T T"
P        1.01196041       3.53785459       7.55393453       0.00000000 NULL       0.18806600       0.23343100      -0.01852000
P        4.10415670       1.57826252       7.55393453       0.00000000 NULL      -0.18806600      -0.23343100      -0.01852000
P        1.57826252       1.01196041       2.23557957       0.00000000 NULL      -0.23343100       0.18806600       0.01852000
P        3.53785459       4.10415670       2.23557957       0.00000000 NULL       0.23343100      -0.18806600       0.01852000
P        3.79634456       6.28560774       1.80909564       0.00000000 NULL      -0.21592600      -0.12376400      -0.19344200
P        1.31977255      -1.16949063       1.80909564       0.00000000 NULL       0.21592600       0.12376400      -0.19344200
P       -1.16949063       3.79634456       7.98041846       0.00000000 NULL       0.12376400      -0.21592600       0.19344200
P        6.28560774       1.31977255       7.98041846       0.00000000 NULL      -0.12376400       0.21592600       0.19344200
P        5.28614878       3.64069679       3.68926027       0.00000000 NULL      -0.26223300       0.10362400       0.00864700
P       -0.17003167       1.47542032       3.68926027       0.00000000 NULL       0.26223300      -0.10362400       0.00864700
P        1.47542032       5.28614878       6.10025382       0.00000000 NULL      -0.10362400      -0.26223300      -0.00864700
P        3.64069679      -0.17003167       6.10025382       0.00000000 NULL       0.10362400       0.26223300      -0.00864700
12
Lattice="5.046269923659547 0.0 0.0 0.0 5.046269923659547 0.0 0.0 0.0 9.369129987599184" Properties=species:S:1:pos:R:3:initial_magmoms:R:1:castep_labels:S:1:forces:R:3 n_minim_iter=19 energy=-63.262603596954 stress="0.0010048477598766808 -0.0 -0.0 -0.0 0.0010048477598766808 0.0 -0.0 0.0 0.01766132896384571" free_energy=-63.262603596954 pbc="T T T"
P        1.11678803       3.60032851       7.40968960       0.00000000 NULL      -0.10674000       0.13046500      -0.14187800
P        3.92948190       1.44594141       7.40968960       0.00000000 NULL       0.10674000      -0.13046500      -0.14187800
P        1.44594141       1.11678803       1.95944039       0.00000000 NULL      -0.13046500      -0.10674000       0.14187800
P        3.60032851       3.92948190       1.95944039       0.00000000 NULL       0.13046500       0.10674000       0.14187800
P        3.70759820       6.18211914       1.79981267       0.00000000 NULL      -0.42357200      -0.26949000      -0.18637200
P        1.33867173      -1.13584921       1.79981267       0.00000000 NULL       0.42357200       0.26949000      -0.18637200
P       -1.13584921       3.70759820       7.56931731       0.00000000 NULL       0.26949000      -0.42357200       0.18637200
P        6.18211914       1.33867173       7.56931731       0.00000000 NULL      -0.26949000       0.42357200       0.18637200
P        5.19707161       3.60883893       3.64780841       0.00000000 NULL      -0.36631400       0.15013000      -0.11791600
P       -0.15080169       1.43743099       3.64780841       0.00000000 NULL       0.36631400      -0.15013000      -0.11791600
P        1.43743099       5.19707161       5.72132158       0.00000000 NULL      -0.15013000      -0.36631400       0.11791600
P        3.60883893      -0.15080169       5.72132158       0.00000000 NULL       0.15013000       0.36631400       0.11791600
12
Lattice="5.0292155744186005 0.0 0.0 0.0 5.0292155744186005 0.0 0.0 0.0 9.115090141475909" Properties=species:S:1:pos:R:3:initial_magmoms:R:1:castep_labels:S:1:forces:R:3 n_minim_iter=20 energy=-63.337803150711 stress="5.751511411970801e-05 -0.0 0.0 -0.0 5.751511411970801e-05 -0.0 0.0 -0.0 0.012253668800529588" free_energy=-63.337803150711 pbc="T T T"
P        1.15301567       3.62421684       7.26728470       0.00000000 NULL      -0.31311300      -0.00715600      -0.26512400
P        3.87619990       1.40499873       7.26728470       0.00000000 NULL       0.31311300       0.00715600      -0.26512400
P        1.40499873       1.15301567       1.84780544       0.00000000 NULL       0.00715600      -0.31311300       0.26512400
P        3.62421684       3.87619990       1.84780544       0.00000000 NULL      -0.00715600       0.31311300       0.26512400
P        3.67586481       6.14519363       1.75911465       0.00000000 NULL      -0.45870700      -0.27511600      -0.16319300
P        1.35335077      -1.11597806       1.75911465       0.00000000 NULL       0.45870700       0.27511600      -0.16319300
P       -1.11597806       3.67586481       7.35597549       0.00000000 NULL       0.27511600      -0.45870700       0.16319300
P        6.14519363       1.35335077       7.35597549       0.00000000 NULL      -0.27511600       0.45870700       0.16319300
P        5.17265674       3.60140960       3.58811805       0.00000000 NULL      -0.37022700       0.22097000      -0.07564500
P       -0.14344117       1.42780597       3.58811805       0.00000000 NULL       0.37022700      -0.22097000      -0.07564500
P        1.42780597       5.17265674       5.52697209       0.00000000 NULL      -0.22097000      -0.37022700       0.07564500
P        3.60140960      -0.14344117       5.52697209       0.00000000 NULL       0.22097000       0.37022700       0.07564500
12
Lattice="5.048743800775716 0.0 0.0 0.0 5.048743800775716 0.0 0.0 0.0 8.818808056801739" Properties=species:S:1:pos:R:3:initial_magmoms:R:1:castep_labels:S:1:forces:R:3 n_minim_iter=21 energy=-63.485429735903 stress="-0.00774932872297083 0.0 -0.0 0.0 -0.00774932872297083 0.0 -0.0 0.0 -0.0004888122298776872" free_energy=-63.485429735903 pbc="T T T"
P        1.16200117       3.62502621       6.98612585       0.00000000 NULL      -0.17921600      -0.03707800       0.07244400
P        3.88674263       1.42371759       6.98612585       0.00000000 NULL       0.17921600       0.03707800       0.07244400
P        1.42371759       1.16200117       1.83268220       0.00000000 NULL       0.03707800      -0.17921600      -0.07244400
P        3.62502621       3.88674263       1.83268220       0.00000000 NULL      -0.03707800       0.17921600      -0.07244400
P        3.65830855       6.11576284       1.66569001       0.00000000 NULL      -0.01752600      -0.00608300       0.10406200
P        1.39043525      -1.06701904       1.66569001       0.00000000 NULL       0.01752600       0.00608300       0.10406200
P       -1.06701904       3.65830855       7.15311805       0.00000000 NULL       0.00608300      -0.01752600      -0.10406200
P        6.11576284       1.39043525       7.15311805       0.00000000 NULL      -0.00608300       0.01752600      -0.10406200
P        5.17850208       3.61869852       3.48530573       0.00000000 NULL      -0.10371600       0.13030400      -0.01798000
P       -0.12975828       1.43004528       3.48530573       0.00000000 NULL       0.10371600      -0.13030400      -0.01798000
P        1.43004528       5.17850208       5.33350233       0.00000000 NULL      -0.13030400      -0.10371600       0.01798000
P        3.61869852      -0.12975828       5.33350233       0.00000000 NULL       0.13030400       0.10371600       0.01798000
