32
Lattice="7.008885338981408 0.0 0.0 0.0 7.008885338981408 0.0 0.0 0.0 12.66438995210402" Properties=species:S:1:pos:R:3:initial_magmoms:R:1:castep_labels:S:1:forces:R:3 n_minim_iter=1 energy=-168.982986401707 stress="-0.0001548868853936275 0.0 0.0 0.0 -0.0001548868853936275 0.0 0.0 0.0 -0.00015313484403747292" free_energy=-168.982986401707 pbc="T T T"
P        2.34163356       6.71852649       0.09284635       0.00000000 NULL       0.01817500      -0.00346200      -0.00487500
P        4.66725178       0.29035884       0.09284635       0.00000000 NULL      -0.01817500       0.00346200      -0.00487500
P        6.71852649       4.66725178       6.42504133       0.00000000 NULL      -0.00346200      -0.01817500      -0.00487500
P        0.29035884       2.34163356       6.42504133       0.00000000 NULL       0.00346200       0.01817500      -0.00487500
P        6.67556427       2.06445092       3.22759994       0.00000000 NULL      -0.00206100       0.00853400       0.00223600
P        0.33332107       4.94443442       3.22759994       0.00000000 NULL       0.00206100      -0.00853400       0.00223600
P        2.06445092       0.33332107       9.55979492       0.00000000 NULL       0.00853400       0.00206100       0.00223600
P        4.94443442       6.67556427       9.55979492       0.00000000 NULL      -0.00853400      -0.00206100       0.00223600
P        2.77105449       6.10910909       6.38590367       0.00000000 NULL       0.00232300      -0.00364600      -0.00496300
P        4.23783085       0.89977625       6.38590367       0.00000000 NULL      -0.00232300       0.00364600      -0.00496300
P        6.10910909       4.23783085      12.71809864       0.00000000 NULL      -0.00364600      -0.00232300      -0.00496300
P        0.89977625       2.77105449      12.71809864       0.00000000 NULL       0.00364600       0.00232300      -0.00496300
P        2.02680213       5.52139690      10.86970348       0.00000000 NULL       0.00208900       0.00108300       0.00138000
P        4.98208321       1.48748844      10.86970348       0.00000000 NULL      -0.00208900      -0.00108300       0.00138000
P        5.52139690       4.98208321       4.53750850       0.00000000 NULL       0.00108200      -0.00208900       0.00138000
P        1.48748844       2.02680213       4.53750850       0.00000000 NULL      -0.00108300       0.00208900       0.00138000
P        5.97631915       0.60992485       7.86181317       0.00000000 NULL       0.00109300       0.00381200       0.00440400
P        1.03256619       6.39896049       7.86181317       0.00000000 NULL      -0.00109300      -0.00381200       0.00440400
P        0.60992485       1.03256619       1.52961820       0.00000000 NULL       0.00381200      -0.00109300       0.00440400
P        6.39896049       5.97631915       1.52961820       0.00000000 NULL      -0.00381200       0.00109300       0.00440400
P        4.98676650       4.49843241       7.75805611       0.00000000 NULL      -0.00226600      -0.00464900       0.00449100
P        2.02211883       2.51045293       7.75805611       0.00000000 NULL       0.00226600       0.00464900       0.00449100
P        4.49843241       2.02211883       1.42586113       0.00000000 NULL      -0.00464900       0.00226600       0.00449100
P        2.51045293       4.98676650       1.42586113       0.00000000 NULL       0.00464900      -0.00226600       0.00449100
P        5.52054583       7.34019801       4.59522773       0.00000000 NULL       0.00478800       0.00534600       0.00385500
P        1.48833951      -0.33131267       4.59522773       0.00000000 NULL      -0.00478800      -0.00534600       0.00385500
P        7.34019801       1.48833951      10.92742271       0.00000000 NULL       0.00534600      -0.00478800       0.00385500
P       -0.33131267       5.52054583      10.92742271       0.00000000 NULL      -0.00534600       0.00478800       0.00385500
P        1.01649574       3.10565848       9.57930575       0.00000000 NULL       0.01578700       0.00079400      -0.00652900
P        5.99238960       3.90322686       9.57930575       0.00000000 NULL      -0.01578700      -0.00079400      -0.00652900
P        3.10565848       5.99238960       3.24711077       0.00000000 NULL       0.00079400      -0.01578700      -0.00652900
P        3.90322686       1.01649574       3.24711077       0.00000000 NULL      -0.00079400       0.01578700      -0.00652900
32
Lattice="7.009707603698343 0.0 0.0 0.0 7.009707603698343 0.0 0.0 0.0 12.66585889887956" Properties=species:S:1:pos:R:3:initial_magmoms:R:1:castep_labels:S:1:forces:R:3 n_minim_iter=2 energy=-168.983005901222 stress="2.522697338931435e-06 0.0 0.0 0.0 2.522697338931435e-06 -0.0 0.0 -0.0 4.491043988734624e-05" free_energy=-168.983005901222 pbc="T T T"
P        2.34193040       6.71931048       0.09285119       0.00000000 NULL       0.01897000      -0.00555400      -0.00447300
P        4.66777720       0.29039712       0.09285119       0.00000000 NULL      -0.01897000       0.00555400      -0.00447300
P        6.71931048       4.66777720       6.42578064       0.00000000 NULL      -0.00555400      -0.01897000      -0.00447300
P        0.29039712       2.34193040       6.42578064       0.00000000 NULL       0.00555400       0.01897000      -0.00447300
P        6.67634492       2.06470350       3.22797703       0.00000000 NULL       0.00007500       0.00685600       0.00200400
P        0.33336268       4.94500410       3.22797703       0.00000000 NULL      -0.00007500      -0.00685600       0.00200400
P        2.06470350       0.33336268       9.56090648       0.00000000 NULL       0.00685600      -0.00007500       0.00200400
P        4.94500410       6.67634492       9.56090648       0.00000000 NULL      -0.00685600       0.00007500       0.00200400
P        2.77138241       6.10982136       6.38663833       0.00000000 NULL       0.00148000      -0.00168100      -0.00526100
P        4.23832519       0.89988624       6.38663833       0.00000000 NULL      -0.00148000       0.00168100      -0.00526100
P        6.10982136       4.23832519      12.71956778       0.00000000 NULL      -0.00168100      -0.00148000      -0.00526100
P        0.89988624       2.77138241      12.71956778       0.00000000 NULL       0.00168100       0.00148000      -0.00526100
P        2.02704246       5.52204597      10.87096594       0.00000000 NULL       0.00081900       0.00375200       0.00159400
P        4.98266515       1.48766163      10.87096594       0.00000000 NULL      -0.00081900      -0.00375200       0.00159400
P        5.52204597       4.98266515       4.53803649       0.00000000 NULL       0.00375200      -0.00081900       0.00159400
P        1.48766163       2.02704246       4.53803649       0.00000000 NULL      -0.00375200       0.00081900       0.00159400
P        5.97702161       0.61000105       7.86273043       0.00000000 NULL      -0.00044700       0.00260600       0.00506800
P        1.03268599       6.39970655       7.86273043       0.00000000 NULL       0.00044700      -0.00260600       0.00506800
P        0.61000105       1.03268599       1.52980098       0.00000000 NULL       0.00260600       0.00044700       0.00506800
P        6.39970655       5.97702161       1.52980098       0.00000000 NULL      -0.00260600      -0.00044700       0.00506800
P        4.98734878       4.49895449       7.75896144       0.00000000 NULL       0.00103200      -0.00434700       0.00488800
P        2.02235882       2.51075311       7.75896144       0.00000000 NULL      -0.00103200       0.00434700       0.00488800
P        4.49895449       2.02235882       1.42603199       0.00000000 NULL      -0.00434700      -0.00103200       0.00488800
P        2.51075311       4.98734878       1.42603199       0.00000000 NULL       0.00434700       0.00103200       0.00488800
P        5.52119932       7.34106565       4.59576543       0.00000000 NULL       0.00247800       0.00563000       0.00323300
P        1.48850829      -0.33135805       4.59576543       0.00000000 NULL      -0.00247800      -0.00563000       0.00323300
P        7.34106565       1.48850829      10.92869488       0.00000000 NULL       0.00563000      -0.00247800       0.00323300
P       -0.33135805       5.52119932      10.92869488       0.00000000 NULL      -0.00563100       0.00247800       0.00323300
P        1.01663421       3.10602379       9.58040891       0.00000000 NULL       0.01340100      -0.00027300      -0.00705200
P        5.99307339       3.90368381       9.58040891       0.00000000 NULL      -0.01340100       0.00027300      -0.00705200
P        3.10602379       5.99307339       3.24747946       0.00000000 NULL      -0.00027300      -0.01340100      -0.00705200
P        3.90368381       1.01663421       3.24747946       0.00000000 NULL       0.00027300       0.01340100      -0.00705200
32
Lattice="7.011016955807259 0.0 0.0 0.0 7.011016955807259 0.0 0.0 0.0 12.661967457372661" Properties=species:S:1:pos:R:3:initial_magmoms:R:1:castep_labels:S:1:forces:R:3 n_minim_iter=3 energy=-168.983046352518 stress="8.231161790846634e-05 -0.0 0.0 -0.0 8.231161790846634e-05 -0.0 0.0 -0.0 -0.00013983174129560464" free_energy=-168.983046352518 pbc="T T T"
P        2.34276229       6.72045428       0.09272838       0.00000000 NULL       0.01677500      -0.00495700      -0.00262400
P        4.66825467       0.29056268       0.09272838       0.00000000 NULL      -0.01677500       0.00495700      -0.00262400
P        6.72045428       4.66825467       6.42371211       0.00000000 NULL      -0.00495800      -0.01677500      -0.00262500
P        0.29056268       2.34276229       6.42371211       0.00000000 NULL       0.00495800       0.01677500      -0.00262500
P        6.67758878       2.06523613       3.22702763       0.00000000 NULL      -0.00075400       0.00566600       0.00219700
P        0.33342818       4.94578082       3.22702763       0.00000000 NULL       0.00075400      -0.00566600       0.00219700
P        2.06523613       0.33342818       9.55801136       0.00000000 NULL       0.00566600       0.00075400       0.00219600
P        4.94578082       6.67758878       9.55801136       0.00000000 NULL      -0.00566600      -0.00075400       0.00219600
P        2.77193289       6.11092310       6.38456694       0.00000000 NULL       0.00024600      -0.00034900      -0.00336400
P        4.23908407       0.90009385       6.38456694       0.00000000 NULL      -0.00024600       0.00034900      -0.00336400
P        6.11092310       4.23908407      12.71555067       0.00000000 NULL      -0.00034900      -0.00024600      -0.00336200
P        0.90009385       2.77193289      12.71555067       0.00000000 NULL       0.00034900       0.00024600      -0.00336200
P        2.02744104       5.52314982      10.86765875       0.00000000 NULL      -0.00058400       0.00416600      -0.00025000
P        4.98357591       1.48786713      10.86765875       0.00000000 NULL       0.00058400      -0.00416600      -0.00025000
P        5.52314982       4.98357591       4.53667503       0.00000000 NULL       0.00416600       0.00058400      -0.00024800
P        1.48786713       2.02744104       4.53667503       0.00000000 NULL      -0.00416600      -0.00058400      -0.00024800
P        5.97813218       0.61017213       7.86041901       0.00000000 NULL       0.00012500       0.00173800       0.00412200
P        1.03288477       6.40084483       7.86041901       0.00000000 NULL      -0.00012500      -0.00173800       0.00412200
P        0.61017213       1.03288477       1.52943528       0.00000000 NULL       0.00173800      -0.00012600       0.00412200
P        6.40084483       5.97813218       1.52943528       0.00000000 NULL      -0.00173800       0.00012600       0.00412200
P        4.98829453       4.49970339       7.75667874       0.00000000 NULL      -0.00047200      -0.00306900       0.00175400
P        2.02272242       2.51131357       7.75667874       0.00000000 NULL       0.00047300       0.00306900       0.00175400
P        4.49970339       2.02272242       1.42569501       0.00000000 NULL      -0.00306900       0.00047200       0.00175500
P        2.51131357       4.98829453       1.42569501       0.00000000 NULL       0.00306900      -0.00047200       0.00175500
P        5.52228757       7.34255386       4.59442232       0.00000000 NULL       0.00158700       0.00444700      -0.00093700
P        1.48872939      -0.33153690       4.59442232       0.00000000 NULL      -0.00158700      -0.00444700      -0.00093700
P        7.34255386       1.48872939      10.92540605       0.00000000 NULL       0.00444700      -0.00158800      -0.00093800
P       -0.33153690       5.52228757      10.92540605       0.00000000 NULL      -0.00444700       0.00158800      -0.00093800
P        1.01710936       3.10660066       9.57731939       0.00000000 NULL       0.00328000       0.00359400      -0.00090000
P        5.99390760       3.90441629       9.57731939       0.00000000 NULL      -0.00328000      -0.00359400      -0.00090000
P        3.10660066       5.99390760       3.24633566       0.00000000 NULL       0.00359400      -0.00328000      -0.00089900
P        3.90441629       1.01710936       3.24633566       0.00000000 NULL      -0.00359400       0.00328000      -0.00089900
32
Lattice="7.008792494270206 0.0 0.0 0.0 7.008792494270206 0.0 0.0 0.0 12.66801875502284" Properties=species:S:1:pos:R:3:initial_magmoms:R:1:castep_labels:S:1:forces:R:3 n_minim_iter=4 energy=-168.983170241566 stress="-7.231318070874149e-06 0.0 -0.0 0.0 -7.231318070874149e-06 -0.0 -0.0 -0.0 2.860388036923552e-06" free_energy=-168.983170241566 pbc="T T T"
P        2.34351305       6.71789602       0.09243881       0.00000000 NULL       0.00614300       0.00115300      -0.00200200
P        4.66527944       0.29089648       0.09243881       0.00000000 NULL      -0.00614300      -0.00115300      -0.00200200
P        6.71789602       4.66527944       6.42644818       0.00000000 NULL       0.00115400      -0.00614300      -0.00200000
P        0.29089648       2.34351305       6.42644818       0.00000000 NULL      -0.00115400       0.00614300      -0.00200000
P        6.67544822       2.06512711       3.22873694       0.00000000 NULL       0.00168900       0.00402400      -0.00132800
P        0.33334428       4.94366539       3.22873694       0.00000000 NULL      -0.00168900      -0.00402400      -0.00132800
P        2.06512711       0.33334428       9.56274631       0.00000000 NULL       0.00402400      -0.00168900      -0.00132700
P        4.94366539       6.67544822       9.56274631       0.00000000 NULL      -0.00402400       0.00168900      -0.00132700
P        2.77115807       6.10885756       6.38722592       0.00000000 NULL       0.00061100      -0.00222400      -0.00247200
P        4.23763443       0.89993494       6.38722592       0.00000000 NULL      -0.00061100       0.00222400      -0.00247200
P        6.10885756       4.23763443      12.72123530       0.00000000 NULL      -0.00222400      -0.00061100      -0.00247300
P        0.89993494       2.77115807      12.72123530       0.00000000 NULL       0.00222400       0.00061100      -0.00247300
P        2.02684888       5.52169067      10.87294928       0.00000000 NULL       0.00181300      -0.00453000      -0.00065000
P        4.98194362       1.48710182      10.87294928       0.00000000 NULL      -0.00181300       0.00453000      -0.00065000
P        5.52169067       4.98194362       4.53893990       0.00000000 NULL      -0.00453100      -0.00181300      -0.00065100
P        1.48710182       2.02684888       4.53893990       0.00000000 NULL       0.00453100       0.00181300      -0.00065100
P        5.97621898       0.61018291       7.86456582       0.00000000 NULL      -0.00306700       0.00113600       0.00490100
P        1.03257351       6.39860959       7.86456582       0.00000000 NULL       0.00306700      -0.00113600       0.00490100
P        0.61018291       1.03257351       1.53055644       0.00000000 NULL       0.00113600       0.00306700       0.00490100
P        6.39860959       5.97621898       1.53055644       0.00000000 NULL      -0.00113600      -0.00306700       0.00490100
P        4.98674846       4.49794318       7.76072641       0.00000000 NULL      -0.00863200      -0.00309600      -0.00426900
P        2.02204403       2.51084931       7.76072641       0.00000000 NULL       0.00863200       0.00309600      -0.00426900
P        4.49794318       2.02204403       1.42671703       0.00000000 NULL      -0.00309600       0.00863200      -0.00427000
P        2.51084931       4.98674846       1.42671703       0.00000000 NULL       0.00309600      -0.00863200      -0.00427000
P        5.52073634       7.34065839       4.59681395       0.00000000 NULL      -0.00317800       0.00392000      -0.00060700
P        1.48805615      -0.33186590       4.59681395       0.00000000 NULL       0.00317800      -0.00392000      -0.00060700
P        7.34065839       1.48805615      10.93082333       0.00000000 NULL       0.00392000       0.00317800      -0.00060600
P       -0.33186590       5.52073634      10.93082333       0.00000000 NULL      -0.00392000      -0.00317800      -0.00060600
P        1.01771752       3.10566486       9.58143209       0.00000000 NULL      -0.01087300       0.00724000       0.00642700
P        5.99107497       3.90312763       9.58143209       0.00000000 NULL       0.01087300      -0.00724000       0.00642700
P        3.10566486       5.99107497       3.24742271       0.00000000 NULL       0.00724000       0.01087300       0.00642700
P        3.90312763       1.01771752       3.24742271       0.00000000 NULL      -0.00724000      -0.01087300       0.00642700
32
Lattice="7.008515188210526 0.0 0.0 0.0 7.008515188210526 0.0 0.0 0.0 12.667877026137448" Properties=species:S:1:pos:R:3:initial_magmoms:R:1:castep_labels:S:1:forces:R:3 n_minim_iter=5 energy=-168.983256962086 stress="-2.4749411043834106e-06 -0.0 -0.0 -0.0 -2.4749411043834106e-06 0.0 -0.0 0.0 -3.7606247949721956e-06" free_energy=-168.983256962086 pbc="T T T"
P        2.34500972       6.71743328       0.09202813       0.00000000 NULL      -0.00355400      -0.00195900       0.00093400
P        4.66350546       0.29108191       0.09202813       0.00000000 NULL       0.00355400       0.00195900       0.00093400
P        6.71743328       4.66350546       6.42596664       0.00000000 NULL      -0.00195900       0.00355400       0.00093400
P        0.29108191       2.34500972       6.42596664       0.00000000 NULL       0.00195900      -0.00355400       0.00093400
P        6.67532382       2.06578147       3.22869781       0.00000000 NULL       0.00097600       0.00322100      -0.00129500
P        0.33319136       4.94273372       3.22869781       0.00000000 NULL      -0.00097500      -0.00322100      -0.00129500
P        2.06578147       0.33319136       9.56263632       0.00000000 NULL       0.00322100      -0.00097500      -0.00129500
P        4.94273372       6.67532382       9.56263632       0.00000000 NULL      -0.00322100       0.00097600      -0.00129500
P        2.77117356       6.10833336       6.38666062       0.00000000 NULL       0.00086600      -0.00168400       0.00311900
P        4.23734162       0.90018183       6.38666062       0.00000000 NULL      -0.00086600       0.00168400       0.00311900
P        6.10833336       4.23734162      12.72059913       0.00000000 NULL      -0.00168400      -0.00086600       0.00311900
P        0.90018183       2.77117356      12.72059913       0.00000000 NULL       0.00168400       0.00086600       0.00311900
P        2.02696319       5.52127631      10.87283613       0.00000000 NULL       0.00198600      -0.00442000      -0.00219000
P        4.98155200       1.48723888      10.87283613       0.00000000 NULL      -0.00198600       0.00442000      -0.00219000
P        5.52127631       4.98155200       4.53889761       0.00000000 NULL      -0.00442000      -0.00198600      -0.00219000
P        1.48723888       2.02696319       4.53889761       0.00000000 NULL       0.00442000       0.00198600      -0.00219000
P        5.97569387       0.61039972       7.86518894       0.00000000 NULL      -0.00237600       0.00048200       0.00091500
P        1.03282132       6.39811547       7.86518894       0.00000000 NULL       0.00237600      -0.00048200       0.00091500
P        0.61039972       1.03282132       1.53125043       0.00000000 NULL       0.00048200       0.00237600       0.00091500
P        6.39811547       5.97569387       1.53125043       0.00000000 NULL      -0.00048200      -0.00237600       0.00091500
P        4.98580997       4.49725815       7.76049338       0.00000000 NULL      -0.00225700      -0.00455000       0.00052300
P        2.02270522       2.51125704       7.76049338       0.00000000 NULL       0.00225700       0.00455000       0.00052300
P        4.49725815       2.02270522       1.42655487       0.00000000 NULL      -0.00455000       0.00225700       0.00052300
P        2.51125704       4.98580997       1.42655487       0.00000000 NULL       0.00455000      -0.00225700       0.00052300
P        5.52036819       7.34102069       4.59684103       0.00000000 NULL      -0.00018400      -0.00082100      -0.00157400
P        1.48814699      -0.33250550       4.59684103       0.00000000 NULL       0.00018400       0.00082100      -0.00157400
P        7.34102069       1.48814699      10.93077954       0.00000000 NULL      -0.00082100       0.00018400      -0.00157400
P       -0.33250550       5.52036819      10.93077954       0.00000000 NULL       0.00082100      -0.00018400      -0.00157400
P        1.01734166       3.10622447       9.58157956       0.00000000 NULL       0.00406200      -0.00017300      -0.00043200
P        5.99117353       3.90229072       9.58157956       0.00000000 NULL      -0.00406200       0.00017300      -0.00043200
P        3.10622447       5.99117353       3.24764105       0.00000000 NULL      -0.00017300      -0.00406200      -0.00043200
P        3.90229072       1.01734166       3.24764105       0.00000000 NULL       0.00017300       0.00406200      -0.00043200
