8
Lattice="5.0953899999999885 3.1540567466454284e-07 2.7425624268182424e-31 -2.5476952930424286 4.7341108914709595 -1.446406514728198e-17 5.128226432689054e-08 -0.8284668216781748 7.488220256741814" Properties=species:S:1:pos:R:3:initial_magmoms:R:1:castep_labels:S:1 n_minim_iter=1 pbc="T T T"
P        4.06826834       1.22514071       1.66589163       0.00000000 NULL
P        1.02712201       1.22514052       1.66589163       0.00000000 NULL
P        3.56831123       1.16931105       4.31748540       0.00000000 NULL
P        1.52707913       1.16931092       4.31748540       0.00000000 NULL
P       -1.02976187       1.71828931       7.36108301       0.00000000 NULL
P        1.02976216       1.71828943       7.36108301       0.00000000 NULL
P       -1.01040024       3.09750291       4.77133220       0.00000000 NULL
P        1.01040036       3.09750303       4.77133220       0.00000000 NULL
8
Lattice="5.102876087202467 3.158690649788122e-07 -4.689875380285023e-19 -2.5514383368178546 4.736924886322373 0.000755323228440304 5.1238792350842224e-08 -0.8277645303499113 7.485056661884091" Properties=species:S:1:pos:R:3:initial_magmoms:R:1:castep_labels:S:1 n_minim_iter=2 pbc="T T T"
P        4.07407331       1.22611060       1.66545729       0.00000000 NULL
P        1.02880313       1.22611041       1.66545729       0.00000000 NULL
P        3.57374794       1.17051487       4.31582502       0.00000000 NULL
P        1.52912851       1.17051474       4.31582502       0.00000000 NULL
P       -1.03142779       1.72050297       7.35837573       0.00000000 NULL
P        1.03142808       1.72050310       7.35837573       0.00000000 NULL
P       -1.01208868       3.10029173       4.76995087       0.00000000 NULL
P        1.01208880       3.10029185       4.76995087       0.00000000 NULL
8
Lattice="5.285055627302208 3.271460155003872e-07 8.318281554306234e-18 -2.642528111153107 4.806155370637139 0.01941701451055333 5.0161543703245094e-08 -0.8103615396187652 7.405627742711599" Properties=species:S:1:pos:R:3:initial_magmoms:R:1:castep_labels:S:1 n_minim_iter=3 pbc="T T T"
P        4.21519675       1.24998602       1.65444032       0.00000000 NULL
P        1.06985924       1.24998582       1.65444032       0.00000000 NULL
P        3.70624497       1.20013709       4.27407060       0.00000000 NULL
P        1.57881103       1.20013696       4.27407060       0.00000000 NULL
P       -1.07208476       1.77510534       7.29024433       0.00000000 NULL
P        1.07208506       1.77510547       7.29024433       0.00000000 NULL
P       -1.05335955       3.16904437       4.73501938       0.00000000 NULL
P        1.05335968       3.16904450       4.73501938       0.00000000 NULL
8
Lattice="5.307688985342441 3.2854702496405845e-07 9.574956093052013e-18 -2.6538447928021314 4.848625469420943 0.034877493193650626 4.910784755300547e-08 -0.7933390404672839 7.287634862557759" Properties=species:S:1:pos:R:3:initial_magmoms:R:1:castep_labels:S:1 n_minim_iter=4 pbc="T T T"
P        4.23110894       1.26567773       1.63405389       0.00000000 NULL
P        1.07658042       1.26567753       1.63405389       0.00000000 NULL
P        3.72529411       1.22134755       4.20899344       0.00000000 NULL
P        1.58239525       1.22134742       4.20899344       0.00000000 NULL
P       -1.07822086       1.81523586       7.18242007       0.00000000 NULL
P        1.07822116       1.81523599       7.18242007       0.00000000 NULL
P       -1.06060664       3.21585722       4.67294665       0.00000000 NULL
P        1.06060677       3.21585735       4.67294665       0.00000000 NULL
8
Lattice="5.311071470161297 3.2875640140385616e-07 -1.1664155509300462e-18 -2.655536040256984 4.930134492298775 0.04889285967833825 4.861853321533128e-08 -0.7854341498512505 7.0459959689702565" Properties=species:S:1:pos:R:3:initial_magmoms:R:1:castep_labels:S:1 n_minim_iter=5 pbc="T T T"
P        4.22957734       1.28896668       1.58766819       0.00000000 NULL
P        1.08149450       1.28896648       1.58766819       0.00000000 NULL
P        3.73448211       1.24840976       4.07006873       0.00000000 NULL
P        1.57658973       1.24840963       4.07006873       0.00000000 NULL
P       -1.08194423       1.86910413       6.95157024       0.00000000 NULL
P        1.08194452       1.86910426       6.95157024       0.00000000 NULL
P       -1.06665371       3.28941127       4.53180433       0.00000000 NULL
P        1.06665383       3.28941140       4.53180433       0.00000000 NULL
8
Lattice="5.2875451193999545 3.273001154839283e-07 1.5311838579675444e-17 -2.6437728726986673 5.056504901756816 0.019073057434694764 5.290713260160365e-08 -0.8547166264726556 6.770059797483107" Properties=species:S:1:pos:R:3:initial_magmoms:R:1:castep_labels:S:1 n_minim_iter=6 pbc="T T T"
P        4.20438596       1.30287230       1.52295052       0.00000000 NULL
P        1.08315952       1.30287211       1.52295052       0.00000000 NULL
P        3.72897981       1.24724988       3.89594847       0.00000000 NULL
P        1.55856568       1.24724975       3.89594847       0.00000000 NULL
P       -1.08248687       1.87587137       6.66194629       0.00000000 NULL
P        1.08248716       1.87587150       6.66194629       0.00000000 NULL
P       -1.06981391       3.34825557       4.33466929       0.00000000 NULL
P        1.06981402       3.34825570       4.33466929       0.00000000 NULL
8
Lattice="5.254140303122965 3.252323506155972e-07 -4.581816185666132e-17 -2.6270704725655945 5.185832774034724 -0.05584056747654869 6.164295753092271e-08 -0.9958441934161623 6.453919869882349" Properties=species:S:1:pos:R:3:initial_magmoms:R:1:castep_labels:S:1 n_minim_iter=7 pbc="T T T"
P        4.16564665       1.28725558       1.43732259       0.00000000 NULL
P        1.08849401       1.28725539       1.43732259       0.00000000 NULL
P        3.72780234       1.20949436       3.68304269       0.00000000 NULL
P        1.52633833       1.20949423       3.68304269       0.00000000 NULL
P       -1.08796787       1.82534576       6.30702128       0.00000000 NULL
P        1.08796816       1.82534590       6.30702128       0.00000000 NULL
P       -1.07777271       3.36245669       4.07749774       0.00000000 NULL
P        1.07777281       3.36245682       4.07749774       0.00000000 NULL
8
Lattice="5.152576175865599 3.189455105148617e-07 7.65324578797425e-18 -2.576288407216214 5.1580348600908925 -0.03738240744466102 5.9534576575652624e-08 -0.9617832222651679 6.309217143602029" Properties=species:S:1:pos:R:3:initial_magmoms:R:1:castep_labels:S:1 n_minim_iter=8 pbc="T T T"
P        4.07638511       1.26163163       1.40779521       0.00000000 NULL
P        1.07619142       1.26163145       1.40779521       0.00000000 NULL
P        3.67375508       1.22494318       3.60593839       0.00000000 NULL
P        1.47882145       1.22494305       3.60593839       0.00000000 NULL
P       -1.07917738       1.86395209       6.17471423       0.00000000 NULL
P        1.07917766       1.86395223       6.17471423       0.00000000 NULL
P       -1.06794094       3.36232106       4.00229310       0.00000000 NULL
P        1.06794103       3.36232119       4.00229310       0.00000000 NULL
8
Lattice="5.227261838652235 3.2356856816574547e-07 1.7324020689297538e-17 -2.613631240942887 5.195730282019681 -0.03374715104165938 5.9586980116874595e-08 -0.9626298030984346 6.325207225240695" Properties=species:S:1:pos:R:3:initial_magmoms:R:1:castep_labels:S:1 n_minim_iter=9 pbc="T T T"
P        4.13235683       1.26556586       1.41105500       0.00000000 NULL
P        1.09490537       1.26556567       1.41105500       0.00000000 NULL
P        3.73043152       1.23762409       3.61700308       0.00000000 NULL
P        1.49683068       1.23762395       3.61700308       0.00000000 NULL
P       -1.09894592       1.88895664       6.19244018       0.00000000 NULL
P        1.09894620       1.88895677       6.19244018       0.00000000 NULL
P       -1.08714989       3.39202391       4.01600218       0.00000000 NULL
P        1.08714998       3.39202405       4.01600218       0.00000000 NULL
8
Lattice="5.199265748029603 3.2183560446738676e-07 2.6848842318839196e-17 -2.5996331957595347 5.1977975445177185 -0.026331618718852572 5.888331029586721e-08 -0.9512619916715992 6.3115283247833815" Properties=species:S:1:pos:R:3:initial_magmoms:R:1:castep_labels:S:1 n_minim_iter=10 pbc="T T T"
P        4.10918548       1.26415732       1.40898351       0.00000000 NULL
P        1.09008062       1.26415714       1.40898351       0.00000000 NULL
P        3.71229523       1.24565563       3.61212216       0.00000000 NULL
P        1.48697088       1.24565550       3.61212216       0.00000000 NULL
P       -1.09472500       1.90503811       6.18326416       0.00000000 NULL
P        1.09472528       1.90503825       6.18326416       0.00000000 NULL
P       -1.08272536       3.40084461       4.01347173       0.00000000 NULL
P        1.08272545       3.40084474       4.01347173       0.00000000 NULL
8
Lattice="5.193995728208585 3.2150938917062624e-07 2.9615507438578097e-17 -2.596998186123814 5.202236762601004 -0.019070655702047905 5.8220468747448036e-08 -0.9405537625958017 6.298864594544164" Properties=species:S:1:pos:R:3:initial_magmoms:R:1:castep_labels:S:1 n_minim_iter=11 pbc="T T T"
P        4.10356416       1.26294754       1.40697236       0.00000000 NULL
P        1.09043193       1.26294736       1.40697236       0.00000000 NULL
P        3.71055091       1.25413191       3.60786074       0.00000000 NULL
P        1.48344518       1.25413178       3.60786074       0.00000000 NULL
P       -1.09570893       1.92204076       6.17504006       0.00000000 NULL
P        1.09570921       1.92204090       6.17504006       0.00000000 NULL
P       -1.08344842       3.41112173       4.01146458       0.00000000 NULL
P        1.08344852       3.41112187       4.01146458       0.00000000 NULL
8
Lattice="5.166526393942551 3.1980903178094895e-07 3.97409205345907e-17 -2.583263520599242 5.2282212616379535 0.029414487375858365 5.375470877581783e-08 -0.868409249640006 6.207059908879803" Properties=species:S:1:pos:R:3:initial_magmoms:R:1:castep_labels:S:1 n_minim_iter=12 pbc="T T T"
P        4.07197091       1.25263292       1.39107825       0.00000000 NULL
P        1.09455584       1.25263274       1.39107825       0.00000000 NULL
P        3.70400635       1.31034588       3.57571548       0.00000000 NULL
P        1.46252039       1.31034574       3.57571548       0.00000000 NULL
P       -1.10399850       2.03545129       6.11350115       0.00000000 NULL
P        1.10399876       2.03545143       6.11350115       0.00000000 NULL
P       -1.09001018       3.47692304       3.99331721       0.00000000 NULL
P        1.09001026       3.47692318       3.99331721       0.00000000 NULL
8
Lattice="5.180467893162346 3.2067201339468503e-07 8.043970933823258e-17 -2.590234272384734 5.263368064524529 0.08123348028326532 4.906177838922087e-08 -0.7925947898168063 6.066074621703857" Properties=species:S:1:pos:R:3:initial_magmoms:R:1:castep_labels:S:1 n_minim_iter=13 pbc="T T T"
P        4.06701379       1.21399238       1.35239253       0.00000000 NULL
P        1.11345447       1.21399219       1.35239253       0.00000000 NULL
P        3.72866417       1.38033141       3.52430862       0.00000000 NULL
P        1.45180407       1.38033127       3.52430862       0.00000000 NULL
P       -1.12916019       2.18578187       6.01032226       0.00000000 NULL
P        1.12916044       2.18578201       6.01032226       0.00000000 NULL
P       -1.11262452       3.54707071       3.94637242       0.00000000 NULL
P        1.11262460       3.54707084       3.94637242       0.00000000 NULL
8
Lattice="5.036188512223908 3.1174109042225423e-07 9.849215345030925e-17 -2.5180945828068846 5.277768177035553 0.10553168724606654 4.683870172355798e-08 -0.7566809060758055 5.985150243600562" Properties=species:S:1:pos:R:3:initial_magmoms:R:1:castep_labels:S:1 n_minim_iter=14 pbc="T T T"
P        3.95345582       1.21001439       1.33357208       0.00000000 NULL
P        1.08273304       1.21001421       1.33357208       0.00000000 NULL
P        3.62515057       1.40987059       3.48994946       0.00000000 NULL
P        1.41103826       1.40987045       3.48994946       0.00000000 NULL
P       -1.09953322       2.24300372       5.94820379       0.00000000 NULL
P        1.09953344       2.24300385       5.94820379       0.00000000 NULL
P       -1.08289576       3.57920038       3.91318929       0.00000000 NULL
P        1.08289581       3.57920052       3.91318929       0.00000000 NULL
8
Lattice="5.150733444802626 3.188314449443532e-07 8.240780790873866e-17 -2.575367050175923 5.295210429608674 0.10567565915810459 4.701354851830934e-08 -0.7595055624816639 5.99968358310595" Properties=species:S:1:pos:R:3:initial_magmoms:R:1:castep_labels:S:1 n_minim_iter=15 pbc="T T T"
P        4.04172415       1.21042787       1.33511363       0.00000000 NULL
P        1.10900965       1.21042769       1.33511363       0.00000000 NULL
P        3.70829572       1.41503298       3.49934741       0.00000000 NULL
P        1.44243806       1.41503284       3.49934741       0.00000000 NULL
P       -1.12633311       2.25291209       5.96347239       0.00000000 NULL
P        1.12633334       2.25291223       5.96347239       0.00000000 NULL
P       -1.10929939       3.59083233       3.92242103       0.00000000 NULL
P        1.10929946       3.59083247       3.92242103       0.00000000 NULL
8
Lattice="5.146548763133799 3.185724122989106e-07 8.424201264982352e-17 -2.5732747094075847 5.296277882245655 0.10749872566265085 4.6846613126600226e-08 -0.7568087151939763 5.989769396380515" Properties=species:S:1:pos:R:3:initial_magmoms:R:1:castep_labels:S:1 n_minim_iter=16 pbc="T T T"
P        4.03814367       1.20815033       1.33187333       0.00000000 NULL
P        1.10840545       1.20815015       1.33187333       0.00000000 NULL
P        3.70538885       1.41794942       3.49511735       0.00000000 NULL
P        1.44116025       1.41794928       3.49511735       0.00000000 NULL
P       -1.12599746       2.25887489       5.95562842       0.00000000 NULL
P        1.12599769       2.25887503       5.95562842       0.00000000 NULL
P       -1.10887634       3.59283264       3.91729901       0.00000000 NULL
P        1.10887640       3.59283278       3.91729901       0.00000000 NULL
8
Lattice="5.146220407251595 3.1855208700374537e-07 8.404488673379569e-17 -2.5731105317171616 5.300327609045274 0.11027428046098475 4.6618723979210106e-08 -0.7531271578326001 5.976527237228839" Properties=species:S:1:pos:R:3:initial_magmoms:R:1:castep_labels:S:1 n_minim_iter=17 pbc="T T T"
P        4.03737754       1.20512944       1.32728529       0.00000000 NULL
P        1.10884322       1.20512925       1.32728529       0.00000000 NULL
P        3.70532876       1.42297410       3.48977167       0.00000000 NULL
P        1.44089198       1.42297396       3.48977167       0.00000000 NULL
P       -1.12687044       2.26895708       5.94556501       0.00000000 NULL
P        1.12687067       2.26895722       5.94556501       0.00000000 NULL
P       -1.10959333       3.59753566       3.91066254       0.00000000 NULL
P        1.10959339       3.59753580       3.91066254       0.00000000 NULL
