24
Lattice="7.08015 1.3126019110403296e-07 2.2734935896117938e-07 -2.3600501690510214 9.118577902635147 1.2497458316044438e-06 -2.3600501690509788 -4.55929016488942 7.896919409413417" Properties=species:S:1:pos:R:3:initial_magmoms:R:1:castep_labels:S:1 n_minim_iter=1 pbc="T T T"
P       -1.67871418       6.66505215       3.31638913       0.00000000 NULL
P        3.04138586       2.91397601       4.11391213       0.00000000 NULL
P        0.68133596       4.09883904       0.46662333       0.00000000 NULL
P        3.10163166       4.00114808       0.59231707       0.00000000 NULL
P        0.74158153       6.60504379       3.16893949       0.00000000 NULL
P       -1.61846844       3.07167533       4.13566804       0.00000000 NULL
P        3.97627128       7.08551465       1.93208297       0.00000000 NULL
P        1.61622124       3.90258925       5.17019638       0.00000000 NULL
P       -0.74382860       2.68976335       0.79464534       0.00000000 NULL
P        2.65562269       0.76831275       6.11606614       0.00000000 NULL
P       -2.06447726      -1.12153575       5.50426684       0.00000000 NULL
P        0.29557276       0.35322211       4.17350975       0.00000000 NULL
P       -2.42210202      -2.54413536       6.88226812       0.00000000 NULL
P       -0.06205192      -0.12886223       2.25250169       0.00000000 NULL
P        2.29799789       2.67299668       6.65907287       0.00000000 NULL
P        0.27240907       3.95577088       3.15424686       0.00000000 NULL
P        4.99250910       4.40903608       1.84867693       0.00000000 NULL
P        2.63245905       5.31306034       2.89400099       0.00000000 NULL
P       -0.22966594       6.21812490       4.92330655       0.00000000 NULL
P        4.49043421       1.74580841       2.92340312       0.00000000 NULL
P        2.13038423       5.71393396       0.05021507       0.00000000 NULL
P        4.87091376       0.10706887       1.33320956       0.00000000 NULL
P        0.15081351       3.35116161       7.32304119       0.00000000 NULL
P        2.51086364      -3.45823125       7.13759218       0.00000000 NULL
24
Lattice="7.087740085684243 1.314009051774522e-07 2.2759308271216235e-07 -2.3625801979982417 9.139388215495103 1.2526896959047585e-06 -2.3625801979981995 -4.569695324009572 7.914941667457666" Properties=species:S:1:pos:R:3:initial_magmoms:R:1:castep_labels:S:1 n_minim_iter=2 pbc="T T T"
P       -1.68032709       6.68022199       3.32408821       0.00000000 NULL
P        3.04483301       2.92053381       4.12320006       0.00000000 NULL
P        0.68225307       4.10832687       0.46765859       0.00000000 NULL
P        3.10499381       4.01010546       0.59373245       0.00000000 NULL
P        0.74241365       6.62014966       3.17598913       0.00000000 NULL
P       -1.62016634       3.07882755       4.14522529       0.00000000 NULL
P        3.98036764       7.10145859       1.93636197       0.00000000 NULL
P        1.61778757       3.91172188       5.18186474       0.00000000 NULL
P       -0.74479230       2.69590225       0.79672025       0.00000000 NULL
P        2.65849665       0.76989148       6.12993624       0.00000000 NULL
P       -2.06666335      -1.12393182       5.51672126       0.00000000 NULL
P        0.29591670       0.35403945       4.18322974       0.00000000 NULL
P       -2.42468113      -2.55020797       6.89789186       0.00000000 NULL
P       -0.06210099      -0.12895132       2.25745305       0.00000000 NULL
P        2.30047884       2.67915838       6.67454230       0.00000000 NULL
P        0.27271222       3.96482119       3.16146613       0.00000000 NULL
P        4.99787231       4.41906917       1.85290510       0.00000000 NULL
P        2.63529223       5.32519241       2.90057583       0.00000000 NULL
P       -0.22999026       6.23226819       4.93469401       0.00000000 NULL
P        4.49516994       1.74968525       2.92995784       0.00000000 NULL
P        2.13258993       5.72712931       0.05029515       0.00000000 NULL
P        4.87610043       0.10728806       1.33627975       0.00000000 NULL
P        0.15094012       3.35879831       7.33971818       0.00000000 NULL
P        2.51352028      -3.46608714       7.15388952       0.00000000 NULL
24
Lattice="7.1779946969806945 1.330741529943382e-07 2.3049123080847123e-07 -2.3926650732747174 9.400690219920797 1.2897080116199594e-06 -2.3926650732746766 -4.700346359954464 8.141235821874895" Properties=species:S:1:pos:R:3:initial_magmoms:R:1:castep_labels:S:1 n_minim_iter=3 pbc="T T T"
P       -1.69925013       6.87066575       3.42086401       0.00000000 NULL
P        3.08607972       3.00280368       4.23974137       0.00000000 NULL
P        0.69341492       4.22756625       0.48063579       0.00000000 NULL
P        3.14496755       4.12248451       0.61156505       0.00000000 NULL
P        0.75230251       6.80981870       3.26439600       0.00000000 NULL
P       -1.64036235       3.16873248       4.26528012       0.00000000 NULL
P        4.02889474       7.30145750       1.99002578       0.00000000 NULL
P        1.63622979       4.02655024       5.32823704       0.00000000 NULL
P       -0.75643494       2.77302799       0.82297845       0.00000000 NULL
P        2.69269294       0.78965224       6.30401975       0.00000000 NULL
P       -2.09263680      -1.15392193       5.67308705       0.00000000 NULL
P        0.30002811       0.36426877       4.30536886       0.00000000 NULL
P       -2.45535401      -2.62663838       7.09399064       0.00000000 NULL
P       -0.06268901      -0.12991163       2.31950720       0.00000000 NULL
P        2.32997569       2.75654908       6.86897779       0.00000000 NULL
P        0.27632875       4.07849011       3.25215593       0.00000000 NULL
P        5.06165859       4.54499708       1.90600043       0.00000000 NULL
P        2.66899364       5.47754860       2.98308499       0.00000000 NULL
P       -0.23392510       6.40981044       5.07773042       0.00000000 NULL
P        4.55140485       1.79834301       3.01219580       0.00000000 NULL
P        2.15873997       5.89288231       0.05131509       0.00000000 NULL
P        4.93775790       0.11000219       1.37482577       0.00000000 NULL
P        0.15242785       3.45471043       7.54908989       0.00000000 NULL
P        2.54509288      -3.56471341       7.35856021       0.00000000 NULL
24
Lattice="7.1309813360282455 1.3220256395514877e-07 2.289815935341e-07 -2.3769939537864104 9.445415830072857 1.2967127867051058e-06 -2.37699395378637 -4.722709170225217 8.179969333467165" Properties=species:S:1:pos:R:3:initial_magmoms:R:1:castep_labels:S:1 n_minim_iter=4 pbc="T T T"
P       -1.68594855       6.90292633       3.43841166       0.00000000 NULL
P        3.06803905       3.01620230       4.25890603       0.00000000 NULL
P        0.69104537       4.24899547       0.48265702       0.00000000 NULL
P        3.12412587       4.14094838       0.61528859       0.00000000 NULL
P        0.74713196       6.84208769       3.27852442       0.00000000 NULL
P       -1.62986179       3.18508803       4.28616170       0.00000000 NULL
P        4.00111376       7.33363358       1.99875695       0.00000000 NULL
P        1.62411994       4.04762641       5.35173676       0.00000000 NULL
P       -0.75287367       2.78686417       0.82948109       0.00000000 NULL
P        2.67517390       0.79260081       6.33311240       0.00000000 NULL
P       -2.07881360      -1.15822838       5.69982777       0.00000000 NULL
P        0.29818019       0.36562665       4.32700253       0.00000000 NULL
P       -2.43947909      -2.64148518       7.12675270       0.00000000 NULL
P       -0.06248520      -0.12849820       2.32900198       0.00000000 NULL
P        2.31450838       2.76998244       6.90418798       0.00000000 NULL
P        0.27455378       4.09824319       3.26815887       0.00000000 NULL
P        5.02854137       4.56598721       1.91510564       0.00000000 NULL
P        2.65154754       5.50389381       2.99671038       0.00000000 NULL
P       -0.23293433       6.43974766       5.10252947       0.00000000 NULL
P        4.52105338       1.80662341       3.02572268       0.00000000 NULL
P        2.14405962       5.92175311       0.05172269       0.00000000 NULL
P        4.90547769       0.11000941       1.38126366       0.00000000 NULL
P        0.15148987       3.47149425       7.58461072       0.00000000 NULL
P        2.52848378      -3.58150445       7.39406854       0.00000000 NULL
24
Lattice="7.017039230146 1.3009017076274941e-07 2.2532281990897937e-07 -2.339013252886534 9.502639093706192 1.3062506879303412e-06 -2.339013252886494 -4.751320808189555 8.229526129911726" Properties=species:S:1:pos:R:3:initial_magmoms:R:1:castep_labels:S:1 n_minim_iter=5 pbc="T T T"
P       -1.65434664       6.94375883       3.46210343       0.00000000 NULL
P        3.02367956       3.03249164       4.28242214       0.00000000 NULL
P        0.68466659       4.27770852       0.48500596       0.00000000 NULL
P        3.07350193       4.16365363       0.62061725       0.00000000 NULL
P        0.73448872       6.88334359       3.29552342       0.00000000 NULL
P       -1.60452432       3.20696178       4.31339086       0.00000000 NULL
P        3.93433059       7.37262655       2.00929501       0.00000000 NULL
P        1.59531746       4.07622696       5.38023664       0.00000000 NULL
P       -0.74369544       2.80510554       0.83999997       0.00000000 NULL
P        2.63260297       0.79598943       6.36957655       0.00000000 NULL
P       -2.04542312      -1.16288994       5.73408714       0.00000000 NULL
P        0.29358997       0.36689959       4.35539262       0.00000000 NULL
P       -2.40099619      -2.66235335       7.16781476       0.00000000 NULL
P       -0.06198301      -0.12501327       2.33995539       0.00000000 NULL
P        2.27702987       2.78736568       6.95128612       0.00000000 NULL
P        0.27027569       4.12373881       3.28918531       0.00000000 NULL
P        4.94830188       4.59225324       1.92667229       0.00000000 NULL
P        2.60928875       5.53796705       3.01367412       0.00000000 NULL
P       -0.23024968       6.47754381       5.13468905       0.00000000 NULL
P        4.44777663       1.81709759       3.04237533       0.00000000 NULL
P        2.10876357       5.95931767       0.05246729       0.00000000 NULL
P        4.82723978       0.10952622       1.38929297       0.00000000 NULL
P        0.14921336       3.49339388       7.62973443       0.00000000 NULL
P        2.48822658      -3.60292091       7.44002913       0.00000000 NULL
24
Lattice="6.6507948834989765 1.2330030084727147e-07 2.1356241647583967e-07 -2.2169318067573567 9.651144253752841 1.331758383212535e-06 -2.216931806757318 -4.825573403513318 8.358135362271481" Properties=species:S:1:pos:R:3:initial_magmoms:R:1:castep_labels:S:1 n_minim_iter=6 pbc="T T T"
P       -1.55065718       7.04771572       3.52884348       0.00000000 NULL
P        2.88320613       3.07121980       4.33908145       0.00000000 NULL
P        0.66627460       4.35778122       0.49021591       0.00000000 NULL
P        2.90995938       4.21904751       0.63491160       0.00000000 NULL
P        0.69302761       6.99177256       3.33634879       0.00000000 NULL
P       -1.52390398       3.26589667       4.38688045       0.00000000 NULL
P        3.71866652       7.46703179       2.03361990       0.00000000 NULL
P        1.50173484       4.15646353       5.44983156       0.00000000 NULL
P       -0.71519661       2.85322146       0.87468945       0.00000000 NULL
P        2.49546015       0.80412028       6.46165931       0.00000000 NULL
P       -1.93840305      -1.17244880       5.82369656       0.00000000 NULL
P        0.27852859       0.36832757       4.43091896       0.00000000 NULL
P       -2.27711128      -2.72220704       7.27169918       0.00000000 NULL
P       -0.06017954      -0.11080038       2.36478764       0.00000000 NULL
P        2.15675188       2.83300646       7.07978799       0.00000000 NULL
P        0.25700012       4.19005953       3.34562775       0.00000000 NULL
P        4.69086341       4.65871747       1.95588652       0.00000000 NULL
P        2.47393173       5.62793983       3.05662675       0.00000000 NULL
P       -0.22155668       6.57385463       5.22015894       0.00000000 NULL
P        4.21230673       1.84342826       3.08304802       0.00000000 NULL
P        1.99537512       6.05943391       0.05493400       0.00000000 NULL
P        4.57505140       0.10670714       1.40922647       0.00000000 NULL
P        0.14118787       3.55179308       7.74593554       0.00000000 NULL
P        2.35811964      -3.65850104       7.56111302       0.00000000 NULL
24
Lattice="6.803092338637617 1.2612377097135632e-07 2.18452811327653e-07 -2.267697626318631 9.714886378653706 1.3393942628681615e-06 -2.2676976263185917 -4.8574444754000865 8.41333765627876" Properties=species:S:1:pos:R:3:initial_magmoms:R:1:castep_labels:S:1 n_minim_iter=7 pbc="T T T"
P       -1.57833638       7.09021250       3.56269428       0.00000000 NULL
P        2.95705856       3.08439789       4.35895936       0.00000000 NULL
P        0.68936121       4.39771953       0.49168953       0.00000000 NULL
P        2.97628029       4.23991812       0.63630612       0.00000000 NULL
P        0.70858271       7.04387169       3.35372602       0.00000000 NULL
P       -1.55911470       3.28854011       4.42331103       0.00000000 NULL
P        3.79715783       7.50501895       2.04019482       0.00000000 NULL
P        1.52946033       4.19551805       5.47944197       0.00000000 NULL
P       -0.73823694       2.87179297       0.89370647       0.00000000 NULL
P        2.55167058       0.80832258       6.49954812       0.00000000 NULL
P       -1.98372425      -1.17549156       5.86359376       0.00000000 NULL
P        0.28397321       0.36716802       4.46353757       0.00000000 NULL
P       -2.32663498      -2.74872513       7.31586576       0.00000000 NULL
P       -0.05893743      -0.10391966       2.37494132       0.00000000 NULL
P        2.20875981       2.85264382       7.13587234       0.00000000 NULL
P        0.26490032       4.21755426       3.36991612       0.00000000 NULL
P        4.80029525       4.68767790       1.96755348       0.00000000 NULL
P        2.53259775       5.66709787       3.07587375       0.00000000 NULL
P       -0.22694289       6.61420626       5.25931971       0.00000000 NULL
P        4.30845216       1.85308036       3.09841319       0.00000000 NULL
P        2.04075473       6.10504338       0.05561040       0.00000000 NULL
P        4.67557513       0.10472587       1.41611174       0.00000000 NULL
P        0.14017997       3.57869196       7.79597939       0.00000000 NULL
P        2.40787756      -3.68341867       7.61458853       0.00000000 NULL
24
Lattice="6.719708834563996 1.2457790923310009e-07 2.1577529927080997e-07 -2.2399031226041775 9.587772958536961 1.3218088279300385e-06 -2.2399031226041397 -4.793887748566418 8.303254214980957" Properties=species:S:1:pos:R:3:initial_magmoms:R:1:castep_labels:S:1 n_minim_iter=8 pbc="T T T"
P       -1.55783873       6.99701798       3.51704515       0.00000000 NULL
P        2.92196721       3.04341502       4.30107507       0.00000000 NULL
P        0.68206436       4.34122680       0.48513944       0.00000000 NULL
P        2.93924439       4.18409941       0.62780849       0.00000000 NULL
P        0.69934130       6.95202677       3.30963439       0.00000000 NULL
P       -1.54056161       3.24553361       4.36581678       0.00000000 NULL
P        3.75015170       7.40516700       2.01342632       0.00000000 NULL
P        1.51024870       4.14151279       5.40635186       0.00000000 NULL
P       -0.72965407       2.83498005       0.88348156       0.00000000 NULL
P        2.52024242       0.79824065       6.41383749       0.00000000 NULL
P       -1.95956341      -1.15977972       5.78763439       0.00000000 NULL
P        0.28033955       0.36153813       4.40504063       0.00000000 NULL
P       -2.29824400      -2.71372897       7.21979060       0.00000000 NULL
P       -0.05834095      -0.10177092       2.34320298       0.00000000 NULL
P        2.18156179       2.81549894       7.04351889       0.00000000 NULL
P        0.26179389       4.16226088       3.32653629       0.00000000 NULL
P        4.74159981       4.62577918       1.94135789       0.00000000 NULL
P        2.50169681       5.59361984       3.03536564       0.00000000 NULL
P       -0.22402646       6.52725352       5.19032479       0.00000000 NULL
P        4.25577958       1.82919465       3.05760734       0.00000000 NULL
P        2.01587666       6.02521170       0.05532766       0.00000000 NULL
P        4.61814128       0.10268655       1.39713314       0.00000000 NULL
P        0.13833513       3.53259086       7.69361911       0.00000000 NULL
P        2.37823821      -3.63527823       7.51576046       0.00000000 NULL
24
Lattice="6.725721207714051 1.2468937370415804e-07 2.1596836145430724e-07 -2.241907247093927 9.593512019009616 1.3225787374349407e-06 -2.241907247093889 -4.796757279580972 8.308224386694823" Properties=species:S:1:pos:R:3:initial_magmoms:R:1:castep_labels:S:1 n_minim_iter=9 pbc="T T T"
P       -1.55820728       7.00084464       3.52027145       0.00000000 NULL
P        2.92560691       3.04444669       4.30277590       0.00000000 NULL
P        0.68369994       4.34497705       0.48518248       0.00000000 NULL
P        2.94170288       4.18559135       0.62787418       0.00000000 NULL
P        0.69979567       6.95696298       3.31089360       0.00000000 NULL
P       -1.54211136       3.24771406       4.36946206       0.00000000 NULL
P        3.75276624       7.40782553       2.01400726       0.00000000 NULL
P        1.51085912       4.14541947       5.40836375       0.00000000 NULL
P       -0.73104778       2.83702343       0.88585890       0.00000000 NULL
P        2.52238067       0.79854234       6.41685713       0.00000000 NULL
P       -1.96143341      -1.15967612       5.79135602       0.00000000 NULL
P        0.28047368       0.36113284       4.40823972       0.00000000 NULL
P       -2.30005554      -2.71673401       7.22368998       0.00000000 NULL
P       -0.05814836      -0.10077583       2.34362103       0.00000000 NULL
P        2.18375850       2.81750888       7.04914182       0.00000000 NULL
P        0.26229145       4.16473810       3.32893802       0.00000000 NULL
P        4.74610563       4.62819967       1.94230237       0.00000000 NULL
P        2.50419850       5.59733071       3.03698962       0.00000000 NULL
P       -0.22418363       6.53065423       5.19417070       0.00000000 NULL
P        4.25963066       1.82990269       3.05862949       0.00000000 NULL
P        2.01772361       6.02971153       0.05542977       0.00000000 NULL
P        4.62172553       0.10223370       1.39774497       0.00000000 NULL
P        0.13791113       3.53515696       7.69789119       0.00000000 NULL
P        2.37981834      -3.63739148       7.52081690       0.00000000 NULL
24
Lattice="6.7252821207641995 1.2468123339689113e-07 2.1595426201296532e-07 -2.24176088468872 9.588733501949 1.3218888036357714e-06 -2.241760884688682 -4.794368020445024 8.30408606987758" Properties=species:S:1:pos:R:3:initial_magmoms:R:1:castep_labels:S:1 n_minim_iter=10 pbc="T T T"
P       -1.55702736       6.99698966       3.51967627       0.00000000 NULL
P        2.92649410       3.04211110       4.29973498       0.00000000 NULL
P        0.68473349       4.34399985       0.48468026       0.00000000 NULL
P        2.94129587       4.18248068       0.62722684       0.00000000 NULL
P        0.69953503       6.95430040       3.30852335       0.00000000 NULL
P       -1.54222565       3.24631952       4.36834132       0.00000000 NULL
P        3.75177158       7.40224875       2.01240243       0.00000000 NULL
P        1.51001082       4.14481916       5.40433652       0.00000000 NULL
P       -0.73174971       2.83603274       0.88735264       0.00000000 NULL
P        2.52208633       0.79801490       6.41278328       0.00000000 NULL
P       -1.96143502      -1.15827360       5.78879784       0.00000000 NULL
P        0.28032570       0.36025776       4.40659510       0.00000000 NULL
P       -2.29967170      -2.71682035       7.21966329       0.00000000 NULL
P       -0.05791089      -0.09963471       2.34142128       0.00000000 NULL
P        2.18384962       2.81645410       7.04709161       0.00000000 NULL
P        0.26254772       4.16264020       3.32774504       0.00000000 NULL
P        4.74606917       4.62550326       1.94108203       0.00000000 NULL
P        2.50430841       5.59495725       3.03526462       0.00000000 NULL
P       -0.22409841       6.52686263       5.19230379       0.00000000 NULL
P        4.25942316       1.82863677       3.05627932       0.00000000 NULL
P        2.01766247       6.02760128       0.05550853       0.00000000 NULL
P        4.62086225       0.10160956       1.39680084       0.00000000 NULL
P        0.13734057       3.53389741       7.69368442       0.00000000 NULL
P        2.37910141      -3.63550779       7.51769117       0.00000000 NULL
24
Lattice="6.730893241401803 1.2478525870034616e-07 2.1613443979830722e-07 -2.2436312571986043 9.532852755608316 1.3137055050013919e-06 -2.243631257198566 -4.766427640291764 8.255691927995704" Properties=species:S:1:pos:R:3:initial_magmoms:R:1:castep_labels:S:1 n_minim_iter=11 pbc="T T T"
P       -1.54401707       6.95153453       3.51445457       0.00000000 NULL
P        2.94324514       3.01348003       4.26298053       0.00000000 NULL
P        0.69961416       4.33426492       0.47826224       0.00000000 NULL
P        2.94082868       4.14422405       0.61888767       0.00000000 NULL
P        0.69719746       6.92476990       3.27956171       0.00000000 NULL
P       -1.54643359       3.23028554       4.35724796       0.00000000 NULL
P        3.74495378       7.33357486       1.99281872       0.00000000 NULL
P        1.50132265       4.14023535       5.35465504       0.00000000 NULL
P       -0.74230826       2.82546932       0.90822367       0.00000000 NULL
P        2.52240070       0.79160894       6.36335947       0.00000000 NULL
P       -1.96486141      -1.14020873       5.75956787       0.00000000 NULL
P        0.27876969       0.34859885       4.38846057       0.00000000 NULL
P       -2.29839220      -2.72045041       7.17203875       0.00000000 NULL
P       -0.05476101      -0.08451598       2.31369568       0.00000000 NULL
P        2.18886986       2.80496544       7.02565346       0.00000000 NULL
P        0.26650720       4.13803523       3.31467456       0.00000000 NULL
P        4.75376940       4.59324435       1.92630872       0.00000000 NULL
P        2.51013827       5.56800000       3.01471423       0.00000000 NULL
P       -0.22310386       6.48148669       5.17191406       0.00000000 NULL
P        4.26415846       1.81310201       3.02717745       0.00000000 NULL
P        2.02052740       6.00469086       0.05660596       0.00000000 NULL
P        4.61694719       0.09312268       1.38547688       0.00000000 NULL
P        0.12968477       3.52000730       7.64360239       0.00000000 NULL
P        2.37331598      -3.61313080       7.48230885       0.00000000 NULL
