6
Lattice="5.0772699999999995 0.0 0.0 0.0 5.569689999999999 8.777737493298875e-16 0.0 -2.7848450000000002 4.823493031204149" Properties=species:S:1:pos:R:3:initial_magmoms:R:1:castep_labels:S:1 n_minim_iter=1 pbc="T T T"
P        3.85650034       1.56782930       3.27736189       0.00000000 NULL
P        0.47165367      -0.83734831       4.54259209       0.00000000 NULL
P        2.16407701      -0.73048100       1.82703208       0.00000000 NULL
P        0.34890847       2.50843354       4.17103842       0.00000000 NULL
P        2.04133180       0.70324799       0.08684796       0.00000000 NULL
P        3.73375514       5.14285346       0.56560665       0.00000000 NULL
6
Lattice="5.086404249184572 0.0 0.0 0.0 5.571922272140546 -5.709613663435619e-16 0.0 -2.7859611360702727 4.825426235586024" Properties=species:S:1:pos:R:3:initial_magmoms:R:1:castep_labels:S:1 n_minim_iter=2 pbc="T T T"
P        3.86329192       1.56829983       3.27857455       0.00000000 NULL
P        0.47235575      -0.83751763       4.54432645       0.00000000 NULL
P        2.16782384      -0.73078220       1.82795146       0.00000000 NULL
P        0.34968262       2.50951591       4.17258131       0.00000000 NULL
P        2.04515070       0.70360289       0.08701388       0.00000000 NULL
P        3.74061879       5.14476459       0.56583104       0.00000000 NULL
6
Lattice="5.487485618852664 0.0 0.0 0.0 5.664900002589544 4.291944839781535e-16 0.0 -2.8324500012947724 4.905947312141079" Properties=species:S:1:pos:R:3:initial_magmoms:R:1:castep_labels:S:1 n_minim_iter=3 pbc="T T T"
P        4.16126089       1.58770280       3.32902530       0.00000000 NULL
P        0.50293714      -0.84442188       4.61642562       0.00000000 NULL
P        2.33209902      -0.74328093       1.86644370       0.00000000 NULL
P        0.38392193       2.55477422       4.23665189       0.00000000 NULL
P        2.21308380       0.71846473       0.09417343       0.00000000 NULL
P        4.04224568       5.22411105       0.57512199       0.00000000 NULL
6
Lattice="5.6080702223391174 0.0 0.0 0.0 5.596723591868136 7.327636620829684e-16 0.0 -2.7983617959340688 4.846904808517497" Properties=species:S:1:pos:R:3:initial_magmoms:R:1:castep_labels:S:1 n_minim_iter=4 pbc="T T T"
P        4.25071059       1.56711240       3.29087028       0.00000000 NULL
P        0.51199711      -0.83517167       4.55862882       0.00000000 NULL
P        2.38135385      -0.73194074       1.84431052       0.00000000 NULL
P        0.39435023       2.52833337       4.18274343       0.00000000 NULL
P        2.26370697       0.71019483       0.09822922       0.00000000 NULL
P        4.13306371       5.15655717       0.56593216       0.00000000 NULL
6
Lattice="5.947908208080053 0.0 0.0 0.0 5.3490209772009925 4.86665283862381e-16 0.0 -2.674510488600497 4.632388051631923" Properties=species:S:1:pos:R:3:initial_magmoms:R:1:castep_labels:S:1 n_minim_iter=5 pbc="T T T"
P        4.50275720       1.49347936       3.15136160       0.00000000 NULL
P        0.53748506      -0.80138840       4.35009832       0.00000000 NULL
P        2.52012113      -0.69209097       1.76331618       0.00000000 NULL
P        0.42378514       2.42940229       3.98850033       0.00000000 NULL
P        2.40642121       0.68017722       0.10967394       0.00000000 NULL
P        4.38905728       4.91395194       0.53421378       0.00000000 NULL
