8
Lattice="5.316400000000001 0.0 -7.443475318304223e-32 0.0 5.91422 0.0 -2.6582000000000003 0.0 5.391689245757803" Properties=species:S:1:pos:R:3:initial_magmoms:R:1:castep_labels:S:1 n_minim_iter=1 pbc="T T T"
P        2.60568114       3.97793335       3.45981949       0.00000000 NULL
P        0.05251885       1.02082335       1.93186974       0.00000000 NULL
P       -0.05251886       4.89339665       1.93186974       0.00000000 NULL
P        2.71071885       1.93628665       3.45981949       0.00000000 NULL
P        2.52848596       1.26224654       0.99541744       0.00000000 NULL
P        0.12971404       4.21935654       4.39627179       0.00000000 NULL
P       -0.12971404       1.69486346       4.39627179       0.00000000 NULL
P        2.78791404       4.65197346       0.99541744       0.00000000 NULL
8
Lattice="5.311475706767646 0.0 -9.861504494288049e-19 0.0 5.913340153675469 0.0 -2.655737853383823 0.0 5.392064622855049" Properties=species:S:1:pos:R:3:initial_magmoms:R:1:castep_labels:S:1 n_minim_iter=2 pbc="T T T"
P        2.60321958       3.97747113       3.46013314       0.00000000 NULL
P        0.05251827       1.02080105       1.93193147       0.00000000 NULL
P       -0.05251828       4.89253910       1.93193147       0.00000000 NULL
P        2.70825612       1.93586902       3.46013314       0.00000000 NULL
P        2.52610404       1.26194130       0.99570923       0.00000000 NULL
P        0.12963381       4.21861138       4.39635537       0.00000000 NULL
P       -0.12963382       1.69472877       4.39635537       0.00000000 NULL
P        2.78537166       4.65139885       0.99570923       0.00000000 NULL
8
Lattice="4.9286695889520615 0.0 -4.743353147168532e-17 0.0 5.844628171922565 0.0 -2.4643347944760308 0.0 5.423670162256108" Properties=species:S:1:pos:R:3:initial_magmoms:R:1:castep_labels:S:1 n_minim_iter=3 pbc="T T T"
P        2.41198483       3.94173860       3.48641133       0.00000000 NULL
P        0.05234996       1.01942452       1.93725881       0.00000000 NULL
P       -0.05234997       4.82520365       1.93725881       0.00000000 NULL
P        2.51668475       1.90288957       3.48641133       0.00000000 NULL
P        2.34104286       1.23786946       1.01973462       0.00000000 NULL
P        0.12329192       4.16018354       4.40393553       0.00000000 NULL
P       -0.12329193       1.68444463       4.40393553       0.00000000 NULL
P        2.58762672       4.60675872       1.01973462       0.00000000 NULL
8
Lattice="4.884670005800387 2.230260158833087e-34 -1.4519596484527073e-17 0.0 5.968390003622416 -2.7480647024591474e-17 -2.4423350029001933 -2.5501359696889127e-17 5.556495211168251" Properties=species:S:1:pos:R:3:initial_magmoms:R:1:castep_labels:S:1 n_minim_iter=4 pbc="T T T"
P        2.38819719       4.03804357       3.57921488       0.00000000 NULL
P        0.05413780       1.05384857       1.97728031       0.00000000 NULL
P       -0.05413781       4.91454143       1.97728031       0.00000000 NULL
P        2.49647280       1.93034643       3.57921488       0.00000000 NULL
P        2.31857522       1.25883360       1.05769553       0.00000000 NULL
P        0.12375978       4.24302860       4.49879967       0.00000000 NULL
P       -0.12375978       1.72536140       4.49879967       0.00000000 NULL
P        2.56609478       4.70955640       1.05769553       0.00000000 NULL
8
Lattice="4.8114097315845035 2.200674791060069e-34 -2.615343999362581e-17 6.28310103808724e-35 5.889216723065603 -2.7243152358371123e-17 -2.4057048657922517 -2.5163073106261407e-17 5.508474581437427" Properties=species:S:1:pos:R:3:initial_magmoms:R:1:castep_labels:S:1 n_minim_iter=5 pbc="T T T"
P        2.35126652       3.98774826       3.55210892       0.00000000 NULL
P        0.05443834       1.04313990       1.95636565       0.00000000 NULL
P       -0.05443835       4.84607682       1.95636565       0.00000000 NULL
P        2.46014321       1.90146846       3.55210892       0.00000000 NULL
P        2.28297633       1.23939158       1.05318008       0.00000000 NULL
P        0.12272853       4.18399994       4.45529449       0.00000000 NULL
P       -0.12272854       1.70521678       4.45529449       0.00000000 NULL
P        2.52843340       4.64982514       1.05318008       0.00000000 NULL
8
Lattice="4.79051859340153 2.260113648211986e-34 -2.429626782026501e-17 6.181941546939994e-35 5.88311126393041 -2.867082456266876e-17 -2.395259296700765 -2.640502437493261e-17 5.523030303459781" Properties=species:S:1:pos:R:3:initial_magmoms:R:1:castep_labels:S:1 n_minim_iter=6 pbc="T T T"
P        2.34009145       3.98831075       3.56556882       0.00000000 NULL
P        0.05516784       1.04675512       1.95746147       0.00000000 NULL
P       -0.05516784       4.83635614       1.95746147       0.00000000 NULL
P        2.45042713       1.89480051       3.56556882       0.00000000 NULL
P        2.27246450       1.23581586       1.06086840       0.00000000 NULL
P        0.12279479       4.17737149       4.46216189       0.00000000 NULL
P       -0.12279479       1.70573977       4.46216189       0.00000000 NULL
P        2.51805408       4.64729541       1.06086840       0.00000000 NULL
8
Lattice="4.749933106282093 2.241602054196349e-34 -2.8658747822910915e-17 9.663198941054706e-35 5.837521423764353 -2.875780789663651e-17 -2.3749665531410464 -2.620040461052078e-17 5.5397864169210385" Properties=species:S:1:pos:R:3:initial_magmoms:R:1:castep_labels:S:1 n_minim_iter=7 pbc="T T T"
P        2.31749720       3.97076883       3.58878242       0.00000000 NULL
P        0.05746935       1.05200811       1.95100399       0.00000000 NULL
P       -0.05746935       4.78551331       1.95100399       0.00000000 NULL
P        2.43243590       1.86675260       3.58878242       0.00000000 NULL
P        2.25158620       1.21979431       1.07789844       0.00000000 NULL
P        0.12338035       4.13855502       4.46188796       0.00000000 NULL
P       -0.12338036       1.69896640       4.46188796       0.00000000 NULL
P        2.49834690       4.61772711       1.07789844       0.00000000 NULL
8
Lattice="4.7948543643709565 2.1978442012254265e-34 -2.5207555294016037e-17 8.065684915253221e-35 5.773344151814424 -2.8658615792132296e-17 -2.3974271821854782 -2.591235933071378e-17 5.5206784558701365" Properties=species:S:1:pos:R:3:initial_magmoms:R:1:castep_labels:S:1 n_minim_iter=8 pbc="T T T"
P        2.33688421       3.93970130       3.58884316       0.00000000 NULL
P        0.06054297       1.05302922       1.93183528       0.00000000 NULL
P       -0.06054297       4.72031493       1.93183528       0.00000000 NULL
P        2.45797015       1.83364286       3.58884316       0.00000000 NULL
P        2.27170479       1.20137448       1.08600324       0.00000000 NULL
P        0.12572239       4.08804656       4.43467520       0.00000000 NULL
P       -0.12572240       1.68529759       4.43467520       0.00000000 NULL
P        2.52314957       4.57196967       1.08600324       0.00000000 NULL
8
Lattice="4.804564025848816 2.169818282997772e-34 -2.430262539410613e-17 7.832629134453416e-35 5.723132929485714 -2.842147310234436e-17 -2.402282012924408 -2.5686997529788228e-17 5.474996258656733" Properties=species:S:1:pos:R:3:initial_magmoms:R:1:castep_labels:S:1 n_minim_iter=9 pbc="T T T"
P        2.33948462       3.91424823       3.56803775       0.00000000 NULL
P        0.06279738       1.05268177       1.90695849       0.00000000 NULL
P       -0.06279739       4.67045116       1.90695849       0.00000000 NULL
P        2.46507939       1.80888470       3.56803775       0.00000000 NULL
P        2.27518068       1.18817530       1.08582009       0.00000000 NULL
P        0.12710133       4.04974177       4.38917616       0.00000000 NULL
P       -0.12710134       1.67339116       4.38917616       0.00000000 NULL
P        2.52938334       4.53495763       1.08582009       0.00000000 NULL
8
Lattice="4.8285908890674945 2.161669604316473e-34 -1.936800202148625e-17 4.375957506171972e-35 5.713874086081866 -2.840178452546954e-17 -2.4142954445337472 -2.5645441289425887e-17 5.471203531786463" Properties=species:S:1:pos:R:3:initial_magmoms:R:1:castep_labels:S:1 n_minim_iter=10 pbc="T T T"
P        2.35003980       3.91269672       3.57039733       0.00000000 NULL
P        0.06425564       1.05575967       1.90080618       0.00000000 NULL
P       -0.06425564       4.65811441       1.90080618       0.00000000 NULL
P        2.47855108       1.80117737       3.57039733       0.00000000 NULL
P        2.28596279       1.18519102       1.09007792       0.00000000 NULL
P        0.12833265       4.04212806       4.38112560       0.00000000 NULL
P       -0.12833266       1.67174602       4.38112560       0.00000000 NULL
P        2.54262809       4.52868307       1.09007792       0.00000000 NULL
8
Lattice="4.838787530691895 2.151452260713662e-34 -1.8341915930742904e-17 3.3932598319694395e-35 5.693332308106277 -2.831932612667707e-17 -2.4193937653459474 -2.5553244129825086e-17 5.455319083318296" Properties=species:S:1:pos:R:3:initial_magmoms:R:1:castep_labels:S:1 n_minim_iter=11 pbc="T T T"
P        2.35394829       3.90241755       3.56416796       0.00000000 NULL
P        0.06544546       1.05575140       1.89115111       0.00000000 NULL
P       -0.06544547       4.63758091       1.89115111       0.00000000 NULL
P        2.48483923       1.79091476       3.56416796       0.00000000 NULL
P        2.29019604       1.18009169       1.09128936       0.00000000 NULL
P        0.12919772       4.02675785       4.36402971       0.00000000 NULL
P       -0.12919772       1.66657446       4.36402971       0.00000000 NULL
P        2.54859148       4.51324062       1.09128936       0.00000000 NULL
8
Lattice="4.862402524324308 2.1371010743490884e-34 -1.7783017344161454e-17 3.3084480207644816e-35 5.663955667602424 -2.82024154650039e-17 -2.431201262162154 -2.5421393672854522e-17 5.432797891930617" Properties=species:S:1:pos:R:3:initial_magmoms:R:1:castep_labels:S:1 n_minim_iter=12 pbc="T T T"
P        2.36349589       3.88906828       3.55687977       0.00000000 NULL
P        0.06770537       1.05709045       1.87591811       0.00000000 NULL
P       -0.06770537       4.60686522       1.87591811       0.00000000 NULL
P        2.49890663       1.77488738       3.55687977       0.00000000 NULL
P        2.30026226       1.17276121       1.09477259       0.00000000 NULL
P        0.13093899       4.00473905       4.33802529       0.00000000 NULL
P       -0.13093900       1.65921662       4.33802529       0.00000000 NULL
P        2.56214025       4.49119445       1.09477259       0.00000000 NULL
8
Lattice="5.008298748300018 2.0541311364820247e-34 -8.566430786632875e-17 3.5460066768385164e-34 5.494051054227574 -2.7501384259763227e-17 -2.504149374150009 -2.46588149528017e-17 5.297754109644128" Properties=species:S:1:pos:R:3:initial_magmoms:R:1:castep_labels:S:1 n_minim_iter=13 pbc="T T T"
P        2.42196004       3.81017147       3.51147683       0.00000000 NULL
P        0.08218933       1.06314594       1.78627726       0.00000000 NULL
P       -0.08218934       4.43090511       1.78627726       0.00000000 NULL
P        2.58633870       1.68387959       3.51147683       0.00000000 NULL
P        2.36180130       1.13266786       1.11523129       0.00000000 NULL
P        0.14234806       3.87969339       4.18252281       0.00000000 NULL
P       -0.14234807       1.61435766       4.18252281       0.00000000 NULL
P        2.64649744       4.36138319       1.11523129       0.00000000 NULL
8
Lattice="5.067058464456648 2.015742028675561e-34 -9.415323577975629e-17 3.94398725699452e-34 5.493590329171234 -2.7515513535934645e-17 -2.533529232228324 -2.465674709180145e-17 5.300475915579291" Properties=species:S:1:pos:R:3:initial_magmoms:R:1:castep_labels:S:1 n_minim_iter=14 pbc="T T T"
P        2.44849699       3.81370851       3.51823275       0.00000000 NULL
P        0.08503223       1.06691335       1.78224315       0.00000000 NULL
P       -0.08503224       4.42667698       1.78224315       0.00000000 NULL
P        2.61856146       1.67988182       3.51823275       0.00000000 NULL
P        2.38818105       1.13377410       1.12248133       0.00000000 NULL
P        0.14534817       3.88056926       4.17799457       0.00000000 NULL
P       -0.14534818       1.61302106       4.17799457       0.00000000 NULL
P        2.67887740       4.35981623       1.12248133       0.00000000 NULL
8
Lattice="5.058218256369927 1.9997313164841468e-34 -9.007789863285609e-17 3.735346925830945e-34 5.472560239067569 -2.7414831113149384e-17 -2.5291091281849636 -2.4562358252821153e-17 5.281080865714112" Properties=species:S:1:pos:R:3:initial_magmoms:R:1:castep_labels:S:1 n_minim_iter=15 pbc="T T T"
P        2.44287679       3.80125063       3.50851150       0.00000000 NULL
P        0.08623233       1.06497051       1.77256935       0.00000000 NULL
P       -0.08623234       4.40758973       1.77256935       0.00000000 NULL
P        2.61534146       1.67130961       3.50851150       0.00000000 NULL
P        2.38295373       1.13007278       1.12284446       0.00000000 NULL
P        0.14615539       3.86635290       4.15823639       0.00000000 NULL
P       -0.14615540       1.60620734       4.15823639       0.00000000 NULL
P        2.67526452       4.34248746       1.12284446       0.00000000 NULL
8
Lattice="5.06370849919035 1.9878107229164988e-34 -9.151975242469874e-17 3.7901323509083583e-34 5.464593550473116 -2.7381396177140257e-17 -2.531854249595175 -2.4526601559281503e-17 5.274640096479554" Properties=species:S:1:pos:R:3:initial_magmoms:R:1:castep_labels:S:1 n_minim_iter=16 pbc="T T T"
P        2.44422820       3.79805975       3.50738012       0.00000000 NULL
P        0.08762604       1.06576297       1.76725996       0.00000000 NULL
P       -0.08762605       4.39883058       1.76725996       0.00000000 NULL
P        2.61948029       1.66653380       3.50738012       0.00000000 NULL
P        2.38457080       1.12920841       1.12592301       0.00000000 NULL
P        0.14728345       3.86150518       4.14871707       0.00000000 NULL
P       -0.14728345       1.60308837       4.14871707       0.00000000 NULL
P        2.67913770       4.33538514       1.12592301       0.00000000 NULL
8
Lattice="5.093082674924859 1.8950115251236355e-34 -8.299822958281694e-17 3.3030511135475537e-34 5.39449707893654 -2.712676989796676e-17 -2.5465413374624295 -2.4211989280763504e-17 5.22558993216152" Properties=species:S:1:pos:R:3:initial_magmoms:R:1:castep_labels:S:1 n_minim_iter=17 pbc="T T T"
P        2.44823460       3.76711082       3.49898729       0.00000000 NULL
P        0.09830673       1.06986228       1.72660263       0.00000000 NULL
P       -0.09830674       4.32463480       1.72660263       0.00000000 NULL
P        2.64484807       1.62738626       3.49898729       0.00000000 NULL
P        2.39085946       1.12096897       1.14999738       0.00000000 NULL
P        0.15568187       3.81821751       4.07559253       0.00000000 NULL
P       -0.15568188       1.57627957       4.07559253       0.00000000 NULL
P        2.70222321       4.27352811       1.14999738       0.00000000 NULL
8
Lattice="5.125665644665422 1.7993092202510185e-34 -9.082157604908101e-17 3.5156153035823037e-34 5.313162081986875 -2.7431617237318928e-17 -2.562832822332711 -2.3846935403547493e-17 5.284314475974026" Properties=species:S:1:pos:R:3:initial_magmoms:R:1:castep_labels:S:1 n_minim_iter=18 pbc="T T T"
P        2.44322730       3.74703043       3.58977724       0.00000000 NULL
P        0.11960551       1.09044939       1.69453723       0.00000000 NULL
P       -0.11960552       4.22271270       1.69453723       0.00000000 NULL
P        2.68243833       1.56613165       3.58977724       0.00000000 NULL
P        2.39135814       1.12287683       1.24028247       0.00000000 NULL
P        0.17147468       3.77945787       4.04403200       0.00000000 NULL
P       -0.17147469       1.53370421       4.04403200       0.00000000 NULL
P        2.73430750       4.19028525       1.24028247       0.00000000 NULL
8
Lattice="5.095428694764708 1.6865052398681447e-34 -8.4055841177468e-17 3.2274147505275945e-34 5.173672881001264 -2.6512415563292337e-17 -2.547714347382354 -2.3220869434908265e-17 5.1072432274808754" Properties=species:S:1:pos:R:3:initial_magmoms:R:1:castep_labels:S:1 n_minim_iter=19 pbc="T T T"
P        2.42722666       3.65121673       3.47388666       0.00000000 NULL
P        0.12048768       1.06438029       1.63335655       0.00000000 NULL
P       -0.12048768       4.10929259       1.63335655       0.00000000 NULL
P        2.66820203       1.52245615       3.47388666       0.00000000 NULL
P        2.37618301       1.09632787       1.21002901       0.00000000 NULL
P        0.17153133       3.68316431       3.89721421       0.00000000 NULL
P       -0.17153134       1.49050857       3.89721421       0.00000000 NULL
P        2.71924568       4.07734501       1.21002901       0.00000000 NULL
8
Lattice="5.154912331735944 1.737791960696703e-34 -1.2052370203493298e-16 5.0069040186959e-34 5.272712859338559 -2.6897179983852306e-17 -2.577456165867972 -2.366538814699224e-17 5.181362670742819" Properties=species:S:1:pos:R:3:initial_magmoms:R:1:castep_labels:S:1 n_minim_iter=20 pbc="T T T"
P        2.45511231       3.72396804       3.52706530       0.00000000 NULL
P        0.12234384       1.08761161       1.65429735       0.00000000 NULL
P       -0.12234385       4.18510125       1.65429735       0.00000000 NULL
P        2.69980001       1.54874482       3.52706530       0.00000000 NULL
P        2.40369259       1.11922530       1.23089182       0.00000000 NULL
P        0.17376357       3.75558173       3.95047084       0.00000000 NULL
P       -0.17376358       1.51713113       3.95047084       0.00000000 NULL
P        2.75121973       4.15348756       1.23089182       0.00000000 NULL
