8
Lattice="4.518499999999999 -1.0512743339755596e-15 -2.76969460023527e-16 0.5823587398198407 5.773664612683649 9.140312014500332e-16 1.4082512680136101 2.119089867235947 6.901446295604714" Properties=species:S:1:pos:R:3:initial_magmoms:R:1:castep_labels:S:1 n_minim_iter=1 pbc="T T T"
P        3.51448688       6.58419489       5.38999505       0.00000000 NULL
P        2.03134603       6.49927602       2.92892619       0.00000000 NULL
P        4.06608745       3.59283483       3.05348418       0.00000000 NULL
P        6.20747441       5.78387269       6.74686149       0.00000000 NULL
P        4.05742449       6.56717335       3.25096009       0.00000000 NULL
P        2.96793241       5.84941163       0.56412284       0.00000000 NULL
P        2.33159715       4.18262138       5.45184650       0.00000000 NULL
P        2.07720695       4.68597581       2.02817840       0.00000000 NULL
8
Lattice="4.518781682566059 0.0002570769338602594 0.00036596133063489207 0.5827235326271799 5.771218429824209 0.0008675498510672701 1.4090185827034676 2.1192406440771956 6.900874566345558" Properties=species:S:1:pos:R:3:initial_magmoms:R:1:castep_labels:S:1 n_minim_iter=2 pbc="T T T"
P        3.51548653       6.58226354       5.39054520       0.00000000 NULL
P        2.03191499       6.49725247       2.92960919       0.00000000 NULL
P        4.06667680       3.59198685       3.05390941       0.00000000 NULL
P        6.20875496       5.78269498       6.74716219       0.00000000 NULL
P        4.05848794       6.56511675       3.25185620       0.00000000 NULL
P        2.96855912       5.84720438       0.56495470       0.00000000 NULL
P        2.33248574       4.18181842       5.45186002       0.00000000 NULL
P        2.07775985       4.68396824       2.02869477       0.00000000 NULL
8
Lattice="4.543336062036544 0.02210629691112604 0.031325512422904475 0.6138067517669321 5.56607222306386 0.07354789635090035 1.4742050109174214 2.131830110477195 6.853837549466324" Properties=species:S:1:pos:R:3:initial_magmoms:R:1:castep_labels:S:1 n_minim_iter=3 pbc="T T T"
P        3.60075007       6.42055401       5.43745595       0.00000000 NULL
P        2.08040537       6.32723039       2.98741988       0.00000000 NULL
P        4.11709973       3.52097706       3.09011782       0.00000000 NULL
P        6.31817597       5.68414112       6.77348367       0.00000000 NULL
P        4.14957960       6.39289245       3.32775723       0.00000000 NULL
P        3.02222841       5.66206470       0.63476334       0.00000000 NULL
P        2.40829551       4.11438282       5.45385326       0.00000000 NULL
P        2.12476246       4.51612657       2.07186953       0.00000000 NULL
8
Lattice="4.589872542389265 0.04450238287132621 0.0212717728355405 0.6484218707278454 5.411522182010564 0.13581514399817848 1.4838562297859448 2.157005620815588 6.934592343225255" Properties=species:S:1:pos:R:3:initial_magmoms:R:1:castep_labels:S:1 n_minim_iter=4 pbc="T T T"
P        3.65504119       6.31323220       5.55968712       0.00000000 NULL
P        2.11623911       6.21033866       3.08306978       0.00000000 NULL
P        4.15937068       3.47808926       3.15012140       0.00000000 NULL
P        6.39480785       5.63357930       6.88155499       0.00000000 NULL
P        4.22903066       6.27635233       3.42508326       0.00000000 NULL
P        3.08768206       5.53004120       0.67926303       0.00000000 NULL
P        2.44875066       4.07470571       5.54154091       0.00000000 NULL
P        2.16243974       4.38808987       2.13546419       0.00000000 NULL
8
Lattice="4.587061420589302 0.04416350321852302 0.0018846557300692198 0.647626549535352 5.2252027381602595 0.19242952571559543 1.4532097697200321 2.1591915273553943 6.95231038789869" Properties=species:S:1:pos:R:3:initial_magmoms:R:1:castep_labels:S:1 n_minim_iter=5 pbc="T T T"
P        3.62624988       6.15203836       5.62174144       0.00000000 NULL
P        2.09569528       6.04209293       3.14472079       0.00000000 NULL
P        4.13369243       3.39348702       3.17289855       0.00000000 NULL
P        6.36056370       5.51802681       6.91618792       0.00000000 NULL
P        4.21946314       6.10334338       3.48086566       0.00000000 NULL
P        3.08814575       5.35010962       0.71116569       0.00000000 NULL
P        2.43132816       3.99744445       5.57515146       0.00000000 NULL
P        2.15178181       4.23564118       2.17279892       0.00000000 NULL
8
Lattice="4.624155573834182 0.04807151844388942 -0.03832299898887183 0.6574009599704368 5.1484321706649 0.2545450901897648 1.4051912578450938 2.2124908350316765 7.032118465011952" Properties=species:S:1:pos:R:3:initial_magmoms:R:1:castep_labels:S:1 n_minim_iter=6 pbc="T T T"
P        3.60972595       6.12672487       5.72871022       0.00000000 NULL
P        2.08490540       6.00250106       3.23639402       0.00000000 NULL
P        4.13431152       3.38399682       3.21122279       0.00000000 NULL
P        6.35406735       5.52782475       6.99635462       0.00000000 NULL
P        4.23739099       6.06337398       3.55774628       0.00000000 NULL
P        3.11919595       5.28427426       0.74049543       0.00000000 NULL
P        2.41396128       4.00772285       5.65484980       0.00000000 NULL
P        2.15318954       4.17670532       2.22542005       0.00000000 NULL
8
Lattice="4.612120913364911 0.05006255394160919 -0.06890545358278592 0.6583940066652987 5.029125772304419 0.28936896072438556 1.355663359054544 2.2155661013697117 6.997750878154981" Properties=species:S:1:pos:R:3:initial_magmoms:R:1:castep_labels:S:1 n_minim_iter=7 pbc="T T T"
P        3.56350434       6.02477520       5.72528483       0.00000000 NULL
P        2.05786517       5.89477896       3.25342387       0.00000000 NULL
P        4.09648834       3.33090820       3.19275265       0.00000000 NULL
P        6.29322746       5.45769798       6.95485184       0.00000000 NULL
P        4.21273863       5.95680267       3.56101623       0.00000000 NULL
P        3.11495633       5.16977868       0.74123660       0.00000000 NULL
P        2.37990340       3.96090031       5.63694779       0.00000000 NULL
P        2.13566803       4.08109064       2.22844058       0.00000000 NULL
8
Lattice="4.633063150339133 0.0607548438253759 -0.10324145988758758 0.6747555404627483 5.016945993619184 0.3260472257884054 1.314760792142093 2.263054857193066 7.00983993482806" Properties=species:S:1:pos:R:3:initial_magmoms:R:1:castep_labels:S:1 n_minim_iter=8 pbc="T T T"
P        3.55234312       6.05396583       5.75707421       0.00000000 NULL
P        2.05603624       5.91058453       3.29166417       0.00000000 NULL
P        4.09560263       3.35265401       3.19263653       0.00000000 NULL
P        6.28246282       5.50859812       6.95717639       0.00000000 NULL
P        4.22726627       5.97898862       3.58397803       0.00000000 NULL
P        3.14303256       5.16840834       0.74844742       0.00000000 NULL
P        2.36486932       3.99607148       5.65492661       0.00000000 NULL
P        2.13904976       4.07863446       2.24521739       0.00000000 NULL
8
Lattice="4.632666349551076 0.06847560367164572 -0.1300226200991603 0.6845698588207318 4.976790505989094 0.3491155678228033 1.277353123626106 2.28205796060438 6.974056421265734" Properties=species:S:1:pos:R:3:initial_magmoms:R:1:castep_labels:S:1 n_minim_iter=9 pbc="T T T"
P        3.52952864       6.03591452       5.74186760       0.00000000 NULL
P        2.04648707       5.88407854       3.29649606       0.00000000 NULL
P        4.07906003       3.34672104       3.17012767       0.00000000 NULL
P        6.25052271       5.50996038       6.91035015       0.00000000 NULL
P        4.22247945       5.95817733       3.57565985       0.00000000 NULL
P        3.15293200       5.13498737       0.74458939       0.00000000 NULL
P        2.34418575       3.99638696       5.63186013       0.00000000 NULL
P        2.13348235       4.05156975       2.24114989       0.00000000 NULL
8
Lattice="4.646003824424613 0.08204987480913621 -0.17539993005409008 0.7036338145514448 4.948695642036704 0.3873970532867329 1.2185678074000033 2.328084717414449 6.936791108587863" Properties=species:S:1:pos:R:3:initial_magmoms:R:1:castep_labels:S:1 n_minim_iter=10 pbc="T T T"
P        3.50308376       6.05100768       5.73307780       0.00000000 NULL
P        2.03726516       5.88346749       3.31387641       0.00000000 NULL
P        4.06537947       3.36139266       3.14182175       0.00000000 NULL
P        6.21607084       5.55189429       6.85368294       0.00000000 NULL
P        4.22756076       5.96784818       3.57096130       0.00000000 NULL
P        3.17949416       5.11875306       0.74060623       0.00000000 NULL
P        2.31602945       4.02479719       5.61062438       0.00000000 NULL
P        2.13026221       4.03921020       2.24053050       0.00000000 NULL
8
Lattice="4.6974076344015 0.11755579515619449 -0.3531719524930958 0.7556277802145668 4.850234180500542 0.5110769774302072 0.979715456153161 2.4765588752884993 6.731114992541242" Properties=species:S:1:pos:R:3:initial_magmoms:R:1:castep_labels:S:1 n_minim_iter=11 pbc="T T T"
P        3.37289270       6.08790843       5.62884884       0.00000000 NULL
P        1.97372632       5.87153835       3.33096186       0.00000000 NULL
P        3.99869141       3.39547084       2.99322131       0.00000000 NULL
P        6.05743022       5.67349732       6.55483829       0.00000000 NULL
P        4.22167484       5.99255801       3.49886902       0.00000000 NULL
P        3.26249453       5.05218727       0.69410466       0.00000000 NULL
P        2.18883643       4.11370193       5.47164550       0.00000000 NULL
P        2.09593650       3.99180172       2.20135747       0.00000000 NULL
8
Lattice="4.860301943388648 0.016889649670032137 -0.3695377095169592 0.6479925832723772 4.934405238700018 0.5004000849368676 0.9582765085207319 2.470598673239947 6.731805835197116" Properties=species:S:1:pos:R:3:initial_magmoms:R:1:castep_labels:S:1 n_minim_iter=12 pbc="T T T"
P        3.33335570       6.10484504       5.62418551       0.00000000 NULL
P        1.87686718       5.93722218       3.32158823       0.00000000 NULL
P        4.05690580       3.35192602       2.98366685       0.00000000 NULL
P        6.12345017       5.62355550       6.52925880       0.00000000 NULL
P        4.22384521       6.02045379       3.48909685       0.00000000 NULL
P        3.24752020       5.08228022       0.64515368       0.00000000 NULL
P        2.17035557       4.12790496       5.47419936       0.00000000 NULL
P        2.04076275       4.01569581       2.18115820       0.00000000 NULL
8
Lattice="4.758611514242486 0.019594788089155955 -0.37456754976725654 0.6383429764987992 4.847904596132771 0.49170746434020385 0.9201695224104316 2.4299500662115454 6.593194198646322" Properties=species:S:1:pos:R:3:initial_magmoms:R:1:castep_labels:S:1 n_minim_iter=13 pbc="T T T"
P        3.25146687       5.99879294       5.50715348       0.00000000 NULL
P        1.83522041       5.83329605       3.25244106       0.00000000 NULL
P        3.96050875       3.29395591       2.91461625       0.00000000 NULL
P        5.98268215       5.52928117       6.38038066       0.00000000 NULL
P        4.13098987       5.92334202       3.41523393       0.00000000 NULL
P        3.18159021       4.99421485       0.61918247       0.00000000 NULL
P        2.11403371       4.06144093       5.36467419       0.00000000 NULL
P        1.99666620       3.94686169       2.13183190       0.00000000 NULL
8
Lattice="4.769176544546843 0.022281480747121597 -0.389281780505027 0.6431376428833642 4.882911965037491 0.49615019928279364 0.902248107625154 2.4510863553916065 6.603769284900691" Properties=species:S:1:pos:R:3:initial_magmoms:R:1:castep_labels:S:1 n_minim_iter=14 pbc="T T T"
P        3.24542846       6.04502660       5.51580982       0.00000000 NULL
P        1.83296141       5.87801299       3.25967587       0.00000000 NULL
P        3.96050269       3.31954141       2.91215547       0.00000000 NULL
P        5.97819806       5.57535602       6.37909935       0.00000000 NULL
P        4.13641264       5.97269496       3.41718254       0.00000000 NULL
P        3.19288891       5.03174228       0.60973306       0.00000000 NULL
P        2.10571441       4.09451510       5.37390890       0.00000000 NULL
P        1.99499981       3.97541336       2.13192992       0.00000000 NULL
8
Lattice="4.763479875588522 0.021886052881225134 -0.398619188913957 0.641898166766971 4.892648552951803 0.49704087611961045 0.8860254870337618 2.4570585682808925 6.589326664611748" Properties=species:S:1:pos:R:3:initial_magmoms:R:1:castep_labels:S:1 n_minim_iter=15 pbc="T T T"
P        3.22865065       6.05631902       5.50376326       0.00000000 NULL
P        1.82318772       5.89011689       3.25308907       0.00000000 NULL
P        3.94689572       3.32440368       2.90068193       0.00000000 NULL
P        5.95607697       5.58689837       6.35584033       0.00000000 NULL
P        4.12601377       5.98872513       3.40765996       0.00000000 NULL
P        3.18902335       5.04137123       0.59817952       0.00000000 NULL
P        2.09236654       4.10437244       5.36368686       0.00000000 NULL
P        1.98591929       3.98253694       2.12371347       0.00000000 NULL
8
Lattice="4.756125817742982 0.0157599195600058 -0.4284187858099928 0.6331224803602412 4.93064605024709 0.5008106016911886 0.8353452821115489 2.478482112449152 6.539014411338697" Properties=species:S:1:pos:R:3:initial_magmoms:R:1:castep_labels:S:1 n_minim_iter=16 pbc="T T T"
P        3.17567714       6.09623125       5.46479358       0.00000000 NULL
P        1.78896775       5.93521018       3.23071709       0.00000000 NULL
P        3.90800896       3.33845202       2.86397861       0.00000000 NULL
P        5.89417359       5.62545708       6.27783217       0.00000000 NULL
P        4.09827455       6.04907115       3.37859982       0.00000000 NULL
P        3.17833401       5.07634251       0.55620095       0.00000000 NULL
P        2.05204820       4.14036760       5.33081069       0.00000000 NULL
P        1.95499557       4.00931168       2.09485043       0.00000000 NULL
