10
Lattice="4.10918 1.651389311802166e-15 6.171781360324472e-16 1.118656287007334 7.067212686168359 1.3442711576539516e-15 1.9298078664989642 1.4245968110431853 7.9334396336812425" Properties=species:S:1:pos:R:3:initial_magmoms:R:1:castep_labels:S:1 n_minim_iter=1 pbc="T T T"
P        4.29668654       5.21226686       3.31864983       0.00000000 NULL
P        3.08870618       5.89305020       0.50058735       0.00000000 NULL
P        4.25414612       1.95428612       7.34735837       0.00000000 NULL
P        2.29650757       6.80089990       4.54338012       0.00000000 NULL
P        2.67872870       0.96637046       2.32321974       0.00000000 NULL
P        3.17248424       3.68870232       3.98054939       0.00000000 NULL
P        5.74046653       6.75361904       6.60551036       0.00000000 NULL
P        1.42046771       5.65892624       1.61612337       0.00000000 NULL
P        4.02110993       3.81161381       5.80242572       0.00000000 NULL
P        5.00963879       5.47433801       5.21634207       0.00000000 NULL
10
Lattice="4.114020955621966 0.004194050841373554 -0.0006673419528949527 1.1271873357212412 7.0754585471680755 -0.0011800585112545466 1.9322469488940597 1.4268777519316045 7.94704994050535" Properties=species:S:1:pos:R:3:initial_magmoms:R:1:castep_labels:S:1 n_minim_iter=2 pbc="T T T"
P        4.30643480       5.22162429       3.32288525       0.00000000 NULL
P        3.09840967       5.90203957       0.50039313       0.00000000 NULL
P        4.26000182       1.95960921       7.35940280       0.00000000 NULL
P        2.30565769       6.80963156       4.54998991       0.00000000 NULL
P        2.68249689       0.96966400       2.32677645       0.00000000 NULL
P        3.17907015       3.69475113       3.98644349       0.00000000 NULL
P        5.75317428       6.76551385       6.61542293       0.00000000 NULL
P        1.42747392       5.66583696       1.61798109       0.00000000 NULL
P        4.02875630       3.81855691       5.81184227       0.00000000 NULL
P        5.02032176       5.48419483       5.22408754       0.00000000 NULL
10
Lattice="4.231143177004137 0.10749868220589719 -0.016762146545237652 1.336741385584412 7.273439986779616 -0.03004704416107923 1.9919921223651174 1.4821462144447657 8.276125042339746" Properties=species:S:1:pos:R:3:initial_magmoms:R:1:castep_labels:S:1 n_minim_iter=3 pbc="T T T"
P        4.54466329       5.44831602       3.42491221       0.00000000 NULL
P        3.33588327       6.11931403       0.49574490       0.00000000 NULL
P        4.40271037       2.08932229       7.65057290       0.00000000 NULL
P        2.53035749       7.01996881       4.70940660       0.00000000 NULL
P        2.77408841       1.05004321       2.41273696       0.00000000 NULL
P        3.33982957       3.84099872       4.12876007       0.00000000 NULL
P        6.06392064       7.05386035       6.85483649       0.00000000 NULL
P        1.59937399       5.83188465       1.66263836       0.00000000 NULL
P        4.21536387       3.98691476       6.03960355       0.00000000 NULL
P        5.28133511       5.72311964       5.41114759       0.00000000 NULL
10
Lattice="4.247575877811843 0.16469389471270163 -0.009016109631189182 1.4395826520870356 7.272184819115468 -0.029295820349886453 2.034493251273696 1.5040914165820034 8.351311418005386" Properties=species:S:1:pos:R:3:initial_magmoms:R:1:castep_labels:S:1 n_minim_iter=4 pbc="T T T"
P        4.63718463       5.49751526       3.45980124       0.00000000 NULL
P        3.43448251       6.14947285       0.51044822       0.00000000 NULL
P        4.46134341       2.14000713       7.72452117       0.00000000 NULL
P        2.64577941       7.03721122       4.75285474       0.00000000 NULL
P        2.80286122       1.08119124       2.43811901       0.00000000 NULL
P        3.40859021       3.87104636       4.16858651       0.00000000 NULL
P        6.19585537       7.12133716       6.92373458       0.00000000 NULL
P        1.68271654       5.83846891       1.67793782       0.00000000 NULL
P        4.29479038       4.03148189       6.10105180       0.00000000 NULL
P        5.38881778       5.77884653       5.46572780       0.00000000 NULL
10
Lattice="4.2415464400869105 0.2209947232502553 0.004403091553147222 1.5347707580508163 7.219925461762176 -0.027862544718598104 2.0770883059974325 1.5144162539727484 8.382478230941157" Properties=species:S:1:pos:R:3:initial_magmoms:R:1:castep_labels:S:1 n_minim_iter=5 pbc="T T T"
P        4.70874488       5.50771489       3.48127561       0.00000000 NULL
P        3.51640090       6.13695203       0.52684144       0.00000000 NULL
P        4.50618661       2.17385532       7.76092852       0.00000000 NULL
P        2.75329934       7.00443243       4.77267171       0.00000000 NULL
P        2.82001170       1.10321601       2.45339047       0.00000000 NULL
P        3.46520737       3.87365958       4.18972153       0.00000000 NULL
P        6.30443909       7.13906449       6.96037221       0.00000000 NULL
P        1.75843415       5.80436710       1.68460118       0.00000000 NULL
P        4.35938512       4.04748324       6.13245850       0.00000000 NULL
P        5.47543198       5.79386897       5.49512475       0.00000000 NULL
10
Lattice="4.237329030279954 0.23956954174695383 0.00896572385383286 1.5655687179668396 7.195460197670842 -0.02940651959160128 2.0903562096917447 1.5140610577542073 8.39019830090338" Properties=species:S:1:pos:R:3:initial_magmoms:R:1:castep_labels:S:1 n_minim_iter=6 pbc="T T T"
P        4.73001829       5.50469017       3.48621212       0.00000000 NULL
P        3.54186755       6.12660580       0.53075206       0.00000000 NULL
P        4.51886904       2.18096424       7.77032001       0.00000000 NULL
P        2.78761853       6.98531868       4.77609034       0.00000000 NULL
P        2.82431412       1.10859866       2.45759315       0.00000000 NULL
P        3.48238550       3.86970296       4.19482861       0.00000000 NULL
P        6.33744590       7.13610179       6.96871253       0.00000000 NULL
P        1.78255718       5.78696660       1.68474238       0.00000000 NULL
P        4.37867010       4.04720520       6.14001560       0.00000000 NULL
P        5.50157746       5.79178235       5.50177217       0.00000000 NULL
10
Lattice="4.209125168539965 0.37598583122949236 0.041919267131333086 1.792507548677025 7.009730889769745 -0.04545991199917104 2.1880265777524306 1.5051099715607725 8.454160181571224" Properties=species:S:1:pos:R:3:initial_magmoms:R:1:castep_labels:S:1 n_minim_iter=7 pbc="T T T"
P        4.88866195       5.47510519       3.52211732       0.00000000 NULL
P        3.73137720       6.04528619       0.55678973       0.00000000 NULL
P        4.61344475       2.22744046       7.84489857       0.00000000 NULL
P        3.04067222       6.83627568       4.80132208       0.00000000 NULL
P        2.85699833       1.14578522       2.48999372       0.00000000 NULL
P        3.60984844       3.83512889       4.23423334       0.00000000 NULL
P        6.58361065       7.10416910       7.03155962       0.00000000 NULL
P        1.96022833       5.65294938       1.68353695       0.00000000 NULL
P        4.52205962       4.03808798       6.19836393       0.00000000 NULL
P        5.69652541       5.76868441       5.55147490       0.00000000 NULL
10
Lattice="4.204512146371287 0.4046734956569385 0.04689727466593796 1.840590484865536 6.964693689739091 -0.0562629345539719 2.2054166242001387 1.4942814259192019 8.48077149198527" Properties=species:S:1:pos:R:3:initial_magmoms:R:1:castep_labels:S:1 n_minim_iter=8 pbc="T T T"
P        4.92170971       5.46074045       3.52942049       0.00000000 NULL
P        3.77211381       6.02239351       0.55670114       0.00000000 NULL
P        4.63111262       2.22952880       7.87049340       0.00000000 NULL
P        3.09211884       6.79468621       4.80759855       0.00000000 NULL
P        2.86373196       1.15018246       2.49906264       0.00000000 NULL
P        3.63594085       3.82116787       4.24605342       0.00000000 NULL
P        6.63431385       7.08475095       7.04801907       0.00000000 NULL
P        1.99706437       5.61862095       1.68031910       0.00000000 NULL
P        4.55062732       4.02723874       6.21586220       0.00000000 NULL
P        5.73691695       5.75423433       5.56380839       0.00000000 NULL
10
Lattice="4.174271540228717 0.6436722604820221 0.089680924925005 2.243402300986047 6.60649676661792 -0.15359539954180468 2.3566730367277633 1.3988658802036829 8.738354088302646" Properties=species:S:1:pos:R:3:initial_magmoms:R:1:castep_labels:S:1 n_minim_iter=9 pbc="T T T"
P        5.20587555       5.34776306       3.60210053       0.00000000 NULL
P        4.11972350       5.84594646       0.55637732       0.00000000 NULL
P        4.78877850       2.24596837       8.11627413       0.00000000 NULL
P        3.52688254       6.45986017       4.87426423       0.00000000 NULL
P        2.92450514       1.18666206       2.58524493       0.00000000 NULL
P        3.86006109       3.70950990       4.36262458       0.00000000 NULL
P        7.07213241       6.93117770       7.20912470       0.00000000 NULL
P        2.30667908       5.34313311       1.65434192       0.00000000 NULL
P        4.79799925       3.93976606       6.38433368       0.00000000 NULL
P        6.08567100       5.64241907       5.68380291       0.00000000 NULL
10
Lattice="4.241557761274241 0.8161412003872847 0.10958284797798101 2.55834222434546 6.745726983641928 -0.1738935805628843 2.4864894199498777 1.4695961921232448 9.05769689524083" Properties=species:S:1:pos:R:3:initial_magmoms:R:1:castep_labels:S:1 n_minim_iter=10 pbc="T T T"
P        5.49111278       5.58232359       3.73841488       0.00000000 NULL
P        4.44576678       6.05967960       0.60204749       0.00000000 NULL
P        4.98327544       2.45065677       8.42354767       0.00000000 NULL
P        3.87533088       6.63704617       5.03996221       0.00000000 NULL
P        3.01678841       1.27782159       2.68316276       0.00000000 NULL
P        4.08240987       3.86346689       4.54631401       0.00000000 NULL
P        7.49087040       7.22497786       7.46426937       0.00000000 NULL
P        2.55474529       5.47395279       1.69582035       0.00000000 NULL
P        5.04726887       4.13724769       6.61061457       0.00000000 NULL
P        6.42936553       5.90844098       5.86937461       0.00000000 NULL
10
Lattice="4.152161632772532 0.8068464247049967 0.13406235143873782 2.5180198977986765 6.591142771660919 -0.17014367922447768 2.488545305346695 1.4313088582575333 8.882708597087767" Properties=species:S:1:pos:R:3:initial_magmoms:R:1:castep_labels:S:1 n_minim_iter=11 pbc="T T T"
P        5.40155300       5.45785207       3.68624967       0.00000000 NULL
P        4.37452486       5.92960426       0.60631041       0.00000000 NULL
P        4.92925915       2.39695344       8.27731201       0.00000000 NULL
P        3.83547582       6.48285158       4.94625599       0.00000000 NULL
P        2.96900665       1.24576374       2.64445560       0.00000000 NULL
P        4.03189053       3.77707893       4.47941998       0.00000000 NULL
P        7.39055986       7.06146221       7.34148984       0.00000000 NULL
P        2.51787999       5.34853634       1.66052948       0.00000000 NULL
P        4.98563552       4.04527604       6.49200400       0.00000000 NULL
P        6.33964701       5.77752707       5.76810870       0.00000000 NULL
10
Lattice="4.180098279163587 0.8230057305638594 0.13406089947373556 2.553416925061706 6.622979480936282 -0.17157862647192496 2.5072646937617993 1.4428182482926255 8.949194561824891" Properties=species:S:1:pos:R:3:initial_magmoms:R:1:castep_labels:S:1 n_minim_iter=12 pbc="T T T"
P        5.44740667       5.49356106       3.71273627       0.00000000 NULL
P        4.42448989       5.96725401       0.61375293       0.00000000 NULL
P        4.96718594       2.42413117       8.33990121       0.00000000 NULL
P        3.87771965       6.51971793       4.98268317       0.00000000 NULL
P        2.98946117       1.25618449       2.66431016       0.00000000 NULL
P        4.06746769       3.80047705       4.51765853       0.00000000 NULL
P        7.45722601       7.10613529       7.39502704       0.00000000 NULL
P        2.54681641       5.37501628       1.66982786       0.00000000 NULL
P        5.02799663       4.07551165       6.53855130       0.00000000 NULL
P        6.39599031       5.81745010       5.80553008       0.00000000 NULL
10
Lattice="4.182502654958513 0.8308069987842029 0.13876610432132933 2.5674885626717225 6.613175528786473 -0.17222228362251535 2.5201826247782932 1.441917148779641 8.959929986649497" Properties=species:S:1:pos:R:3:initial_magmoms:R:1:castep_labels:S:1 n_minim_iter=13 pbc="T T T"
P        5.46031549       5.49134047       3.71999782       0.00000000 NULL
P        4.44331705       5.96569456       0.61922848       0.00000000 NULL
P        4.98248253       2.42992235       8.35349545       0.00000000 NULL
P        3.89670972       6.51285301       4.98867107       0.00000000 NULL
P        2.99402664       1.25596576       2.67029621       0.00000000 NULL
P        4.08108033       3.79768895       4.53035610       0.00000000 NULL
P        7.48181500       7.10145955       7.40697320       0.00000000 NULL
P        2.55779302       5.36707576       1.66863105       0.00000000 NULL
P        5.04433467       4.07611355       6.54667889       0.00000000 NULL
P        6.41591328       5.81639851       5.81061399       0.00000000 NULL
10
Lattice="4.19873702035511 0.8544178410975469 0.15396895896336352 2.6125154340291354 6.586318719905698 -0.17662145331569712 2.565343962631051 1.4367117761541994 9.007594906860092" Properties=species:S:1:pos:R:3:initial_magmoms:R:1:castep_labels:S:1 n_minim_iter=14 pbc="T T T"
P        5.50815951       5.48524092       3.74693726       0.00000000 NULL
P        4.50986627       5.96439327       0.63684447       0.00000000 NULL
P        5.04014292       2.44666410       8.40946292       0.00000000 NULL
P        3.95983321       6.49394573       5.01343839       0.00000000 NULL
P        3.01314872       1.25378071       2.69384897       0.00000000 NULL
P        4.12992721       3.78813508       4.57847127       0.00000000 NULL
P        7.57065203       7.08636069       7.45471277       0.00000000 NULL
P        2.59351756       5.34388459       1.66417951       0.00000000 NULL
P        5.10422350       4.07789147       6.58141125       0.00000000 NULL
P        6.48863038       5.81345283       5.83259829       0.00000000 NULL
10
Lattice="4.232109544078376 0.8642533552593656 0.17854001679935233 2.638516255101891 6.520281222023486 -0.18819296959585285 2.631865070247048 1.4069806204194923 9.06967418829556" Properties=species:S:1:pos:R:3:initial_magmoms:R:1:castep_labels:S:1 n_minim_iter=15 pbc="T T T"
P        5.55807284       5.43361236       3.77976645       0.00000000 NULL
P        4.58355399       5.92841406       0.66068102       0.00000000 NULL
P        5.12640331       2.43398359       8.48568727       0.00000000 NULL
P        4.01714419       6.43087782       5.04131286       0.00000000 NULL
P        3.04014537       1.23018646       2.72954031       0.00000000 NULL
P        4.18820944       3.73964192       4.64781141       0.00000000 NULL
P        7.67772736       7.00364033       7.51728594       0.00000000 NULL
P        2.61599584       5.28138318       1.64688955       0.00000000 NULL
P        5.18315450       4.04282967       6.62629941       0.00000000 NULL
P        6.57719274       5.75935998       5.85430897       0.00000000 NULL
10
Lattice="4.26098886220161 0.8549431356106163 0.20375621204820382 2.63036590110678 6.4364233659662204 -0.20620961099404855 2.6908839958890263 1.3582841829393768 9.10220731845661" Properties=species:S:1:pos:R:3:initial_magmoms:R:1:castep_labels:S:1 n_minim_iter=16 pbc="T T T"
P        5.58383002       5.35176495       3.79507682       0.00000000 NULL
P        4.62390729       5.86498582       0.67715264       0.00000000 NULL
P        5.19902263       2.38788248       8.53411340       0.00000000 NULL
P        4.03971148       6.34043071       5.04637774       0.00000000 NULL
P        3.05847801       1.19319863       2.75711512       0.00000000 NULL
P        4.22440827       3.66530957       4.69499002       0.00000000 NULL
P        7.74769924       6.87707871       7.55114706       0.00000000 NULL
P        2.61433442       5.19950319       1.61799701       0.00000000 NULL
P        5.24174593       3.97731352       6.65099543       0.00000000 NULL
P        6.63577275       5.66791047       5.85637366       0.00000000 NULL
10
Lattice="4.266868429127463 0.8539620708700165 0.20627856221862503 2.630279222335293 6.430132357981966 -0.2105209566031715 2.6981749214791115 1.3509985293934117 9.112175655002547" Properties=species:S:1:pos:R:3:initial_magmoms:R:1:castep_labels:S:1 n_minim_iter=17 pbc="T T T"
P        5.58946317       5.34408472       3.79754693       0.00000000 NULL
P        4.63064756       5.86032395       0.67788323       0.00000000 NULL
P        5.20948943       2.38150700       8.54513702       0.00000000 NULL
P        4.04338467       6.33208435       5.04843681       0.00000000 NULL
P        3.06177710       1.18875433       2.76173169       0.00000000 NULL
P        4.22992996       3.65700499       4.70222189       0.00000000 NULL
P        7.75886680       6.86369444       7.55801829       0.00000000 NULL
P        2.61521131       5.19221849       1.61402332       0.00000000 NULL
P        5.25050608       3.96992366       6.65759017       0.00000000 NULL
P        6.64540351       5.65862494       5.85906631       0.00000000 NULL
10
Lattice="4.272792324998707 0.851966026459308 0.21011155780019583 2.6284589888528025 6.417763279001483 -0.21654138315776383 2.7076651996886354 1.3397476013515044 9.120993211155744" Properties=species:S:1:pos:R:3:initial_magmoms:R:1:castep_labels:S:1 n_minim_iter=18 pbc="T T T"
P        5.59446574       5.33018377       3.79907786       0.00000000 NULL
P        4.63747961       5.85049445       0.67868480       0.00000000 NULL
P        5.22196258       2.37084282       8.55603314       0.00000000 NULL
P        4.04649485       6.31667583       5.04841706       0.00000000 NULL
P        3.06488137       1.18165180       2.76681316       0.00000000 NULL
P        4.23565570       3.64315001       4.70987908       0.00000000 NULL
P        7.77073308       6.84078976       7.56362297       0.00000000 NULL
P        2.61496657       5.17909342       1.60745815       0.00000000 NULL
P        5.26032337       3.95709356       6.66319280       0.00000000 NULL
P        6.65561767       5.64220300       5.85974044       0.00000000 NULL
10
Lattice="4.27786169176666 0.8494356717632162 0.21419295764176655 2.6254871852806563 6.402842531746274 -0.22305049582165634 2.717048509229744 1.3271362065306416 9.127735168262584" Properties=species:S:1:pos:R:3:initial_magmoms:R:1:castep_labels:S:1 n_minim_iter=19 pbc="T T T"
P        5.59805731       5.31374676       3.79952590       0.00000000 NULL
P        4.64325135       5.83835064       0.67931229       0.00000000 NULL
P        5.23376301       2.35848037       8.56524502       0.00000000 NULL
P        4.04840190       6.29838028       5.04677608       0.00000000 NULL
P        3.06721896       1.17357360       2.77140912       0.00000000 NULL
P        4.24042671       3.62717018       4.71661776       0.00000000 NULL
P        7.78097676       6.81415522       7.56729334       0.00000000 NULL
P        2.61380081       5.16365123       1.59985044       0.00000000 NULL
P        5.26914066       3.94207395       6.66717537       0.00000000 NULL
P        6.66444669       5.62289329       5.85869840       0.00000000 NULL
10
Lattice="4.290184397697425 0.8418740529105859 0.22416308978893465 2.6158369153433685 6.36052584698165 -0.24040075021981097 2.739463112208276 1.292946091675204 9.144326227875096" Properties=species:S:1:pos:R:3:initial_magmoms:R:1:castep_labels:S:1 n_minim_iter=20 pbc="T T T"
P        5.60490721       5.26755584       3.79953416       0.00000000 NULL
P        4.65604802       5.80314859       0.68032968       0.00000000 NULL
P        5.26194894       2.32405473       8.58806436       0.00000000 NULL
P        4.05055631       6.24701641       5.04147008       0.00000000 NULL
P        3.07204842       1.15155378       2.78262602       0.00000000 NULL
P        4.25062411       3.58303219       4.73297383       0.00000000 NULL
P        7.80379709       6.74020098       7.57514660       0.00000000 NULL
P        2.60909447       5.12059231       1.57960465       0.00000000 NULL
P        5.28926692       3.90003637       6.67638604       0.00000000 NULL
P        6.68414029       5.56869539       5.85481607       0.00000000 NULL
10
Lattice="4.302629332664309 0.8334705157094026 0.23208391506678647 2.60477193888218 6.3170256290538696 -0.25860158406719913 2.757686716501506 1.2578396462489787 9.163331580814273" Properties=species:S:1:pos:R:3:initial_magmoms:R:1:castep_labels:S:1 n_minim_iter=21 pbc="T T T"
P        5.60950485       5.21983205       3.79845287       0.00000000 NULL
P        4.66738768       5.76632973       0.68025163       0.00000000 NULL
P        5.28633603       2.28824804       8.61234942       0.00000000 NULL
P        4.04920639       6.19436093       5.03648908       0.00000000 NULL
P        3.07523282       1.12893562       2.79319892       0.00000000 NULL
P        4.25792620       3.53743299       4.74877161       0.00000000 NULL
P        7.82217653       6.66372055       7.58241046       0.00000000 NULL
P        2.60305963       5.07650207       1.55919115       0.00000000 NULL
P        5.30548194       3.85631911       6.68608741       0.00000000 NULL
P        6.70009486       5.51229582       5.85080533       0.00000000 NULL
10
Lattice="4.332436529302391 0.8120110085571385 0.251076382515471 2.5759791156745986 6.200797650283245 -0.30902629902898726 2.8009134943729035 1.1631007451580955 9.209758111069647" Properties=species:S:1:pos:R:3:initial_magmoms:R:1:castep_labels:S:1 n_minim_iter=22 pbc="T T T"
P        5.61783162       5.09301385       3.79018915       0.00000000 NULL
P        4.69778392       5.66858740       0.67956319       0.00000000 NULL
P        5.34505956       2.19281726       8.67369493       0.00000000 NULL
P        4.04273189       6.05406522       5.01849594       0.00000000 NULL
P        3.07845935       1.06836360       2.81831318       0.00000000 NULL
P        4.27287283       3.41469445       4.78705924       0.00000000 NULL
P        7.86520357       6.45850533       7.59426823       0.00000000 NULL
P        2.58768833       4.95863348       1.50144873       0.00000000 NULL
P        5.34227185       3.73945651       6.70693172       0.00000000 NULL
P        6.73681805       5.36157651       5.83410143       0.00000000 NULL
10
Lattice="4.381214118478999 0.8159578689714914 0.2646911792469335 2.5960460533089593 6.154912239349566 -0.3622217758134229 2.851474975752559 1.0916118963995227 9.316849397355776" Properties=species:S:1:pos:R:3:initial_magmoms:R:1:castep_labels:S:1 n_minim_iter=23 pbc="T T T"
P        5.67005160       5.03975828       3.79579117       0.00000000 NULL
P        4.79337188       5.65098428       0.69503367       0.00000000 NULL
P        5.42965652       2.14760272       8.79974556       0.00000000 NULL
P        4.08110185       5.99634487       5.03097344       0.00000000 NULL
P        3.08299710       1.02530654       2.85709604       0.00000000 NULL
P        4.31445176       3.33481738       4.85853585       0.00000000 NULL
P        7.97206743       6.33992106       7.64484537       0.00000000 NULL
P        2.61675442       4.89602262       1.44264207       0.00000000 NULL
P        5.41013905       3.68391941       6.76802421       0.00000000 NULL
P        6.82428802       5.29035407       5.84176680       0.00000000 NULL
10
Lattice="4.339060067548726 0.8070043159535071 0.273530702212542 2.569171456048506 6.062193042332279 -0.3606020694175692 2.8456400889068183 1.068325034501645 9.230666495712061" Properties=species:S:1:pos:R:3:initial_magmoms:R:1:castep_labels:S:1 n_minim_iter=24 pbc="T T T"
P        5.62052408       4.96361822       3.76468947       0.00000000 NULL
P        4.75500253       5.57145226       0.69899353       0.00000000 NULL
P        5.39711575       2.11149595       8.72897149       0.00000000 NULL
P        4.05062179       5.90460160       4.98382062       0.00000000 NULL
P        3.05448730       1.00547191       2.83599784       0.00000000 NULL
P        4.28258860       3.27948277       4.82176823       0.00000000 NULL
P        7.91469138       6.23949933       7.58040357       0.00000000 NULL
P        2.59487196       4.81935510       1.42389926       0.00000000 NULL
P        5.37200172       3.62730062       6.70946513       0.00000000 NULL
P        6.77193224       5.20939376       5.78978084       0.00000000 NULL
10
Lattice="4.3642512019084485 0.8126476395279975 0.2723512456958382 2.585735049949438 6.089829374663928 -0.3652338443411039 2.857150016178322 1.0713974799511228 9.288079608811183" Properties=species:S:1:pos:R:3:initial_magmoms:R:1:castep_labels:S:1 n_minim_iter=25 pbc="T T T"
P        5.65113726       4.98684178       3.78311390       0.00000000 NULL
P        4.78660154       5.59928503       0.70332515       0.00000000 NULL
P        5.42457618       2.12226884       8.78352441       0.00000000 NULL
P        4.07185139       5.93268759       5.01230069       0.00000000 NULL
P        3.06801435       1.00941692       2.85239382       0.00000000 NULL
P        4.30445051       3.29199155       4.85096294       0.00000000 NULL
P        7.95879329       6.26618684       7.62238312       0.00000000 NULL
P        2.61173762       4.83991715       1.42817444       0.00000000 NULL
P        5.39987850       3.64444173       6.74927538       0.00000000 NULL
P        6.80899063       5.23355628       5.81976951       0.00000000 NULL
10
Lattice="4.3655607185032785 0.8134735327576524 0.27327658568784224 2.5875119645849063 6.081775670822205 -0.36740504470206264 2.859837853959694 1.0673964640127505 9.293239678362616" Properties=species:S:1:pos:R:3:initial_magmoms:R:1:castep_labels:S:1 n_minim_iter=26 pbc="T T T"
P        5.65308898       4.98054702       3.78308192       0.00000000 NULL
P        4.79236381       5.59450461       0.70571149       0.00000000 NULL
P        5.42827770       2.11912610       8.79088089       0.00000000 NULL
P        4.07409218       5.92506192       5.01340789       0.00000000 NULL
P        3.06687602       1.00675162       2.85437150       0.00000000 NULL
P        4.30640723       3.28520940       4.85490926       0.00000000 NULL
P        7.96469551       6.25588725       7.62471650       0.00000000 NULL
P        2.61461822       4.83211536       1.42511008       0.00000000 NULL
P        5.40273024       3.63970469       6.75256398       0.00000000 NULL
P        6.81292558       5.22663719       5.81983933       0.00000000 NULL
10
Lattice="4.381955387002991 0.8223101656828277 0.2814327471907133 2.607172909907923 6.01656443768513 -0.3896595691658118 2.8863476720378842 1.0304415596548706 9.350388009507917" Properties=species:S:1:pos:R:3:initial_magmoms:R:1:castep_labels:S:1 n_minim_iter=27 pbc="T T T"
P        5.67663743       4.92920766       3.78472990       0.00000000 NULL
P        4.85069900       5.55824583       0.72690383       0.00000000 NULL
P        5.46703801       2.09155835       8.86759245       0.00000000 NULL
P        4.09869999       5.86238559       5.02723928       0.00000000 NULL
P        3.05903800       0.98346880       2.87513514       0.00000000 NULL
P        4.32852225       3.22672998       4.89530956       0.00000000 NULL
P        8.02658551       6.16906017       7.65160765       0.00000000 NULL
P        2.64461610       4.76736140       1.39701197       0.00000000 NULL
P        5.43368808       3.60010491       6.78869403       0.00000000 NULL
P        6.85536415       5.16976236       5.82464539       0.00000000 NULL
10
Lattice="4.446462536198414 0.8632338827110252 0.3224825404023788 2.695116962042708 5.86606299590107 -0.49636720023547337 3.0100833704392658 0.8847455034282189 9.58507981504499" Properties=species:S:1:pos:R:3:initial_magmoms:R:1:castep_labels:S:1 n_minim_iter=28 pbc="T T T"
P        5.78768757       4.80048698       3.78885891       0.00000000 NULL
P        5.06946378       5.49206245       0.78747250       0.00000000 NULL
P        5.64171301       1.98576688       9.18457946       0.00000000 NULL
P        4.21718984       5.69503104       5.07798964       0.00000000 NULL
P        3.05074553       0.91310921       2.96402275       0.00000000 NULL
P        4.43966423       3.04890338       5.04746750       0.00000000 NULL
P        8.28728194       5.92487494       7.74344507       0.00000000 NULL
P        2.78322133       4.60325017       1.29367358       0.00000000 NULL
P        5.57046785       3.48408470       6.93011046       0.00000000 NULL
P        7.03063206       5.02348983       5.85353279       0.00000000 NULL
