11
Lattice="4.542720000000001 -2.394453515470187e-16 -6.658094282608435e-16 -0.3285191927948183 5.439258113829994 1.2221677807539192e-15 -0.6751197698905939 -2.3521962798364466 10.057244624325616" Properties=species:S:1:pos:R:3:initial_magmoms:R:1:castep_labels:S:1 n_minim_iter=1 pbc="T T T"
P       -0.07515343       2.10848303       5.25240707       0.00000000 NULL
P        1.98832966       1.63458481       9.95424536       0.00000000 NULL
P        1.86047656       1.49944419       5.18034993       0.00000000 NULL
P        0.32271769       1.69677335       8.36940565       0.00000000 NULL
P        4.02502772       0.21024060       2.05670753       0.00000000 NULL
P        1.60819129      -0.49739247       5.22422868       0.00000000 NULL
P        4.14175171      -0.92803269       5.08413830       0.00000000 NULL
P        3.51574351       2.06355776       2.63418446       0.00000000 NULL
P        2.80341362       4.08254458       2.94757323       0.00000000 NULL
P        1.35363253       0.41987687       2.78003864       0.00000000 NULL
P        2.47542749      -1.57960169       9.15605516       0.00000000 NULL
11
Lattice="4.548576770416806 -0.0006322378077804468 -0.002690200868867321 -0.32969975556680275 5.443178768403058 0.0009102388390420329 -0.681618713761981 -2.3524547086384557 10.053901380911196" Properties=species:S:1:pos:R:3:initial_magmoms:R:1:castep_labels:S:1 n_minim_iter=2 pbc="T T T"
P       -0.07889103       2.11079573       5.25089402       0.00000000 NULL
P        1.98465978       1.63692761       9.94970772       0.00000000 NULL
P        1.85973422       1.50115684       5.17769170       0.00000000 NULL
P        0.31810838       1.69910224       8.36668682       0.00000000 NULL
P        4.02906351       0.21004211       2.05326490       0.00000000 NULL
P        1.60733361      -0.49746969       5.22149184       0.00000000 NULL
P        4.14407839      -0.92876376       5.07984461       0.00000000 NULL
P        3.51842705       2.06505309       2.63161474       0.00000000 NULL
P        2.80455432       4.08532911       2.94562084       0.00000000 NULL
P        1.35391223       0.42039558       2.77840239       0.00000000 NULL
P        2.47332860      -1.58008765       9.15127979       0.00000000 NULL
11
Lattice="4.697435613991977 -0.017180041299342644 -0.0728015702572333 -0.36027851928968996 5.540002080791362 0.02455252397911607 -0.8503944823089248 -2.3570091792793444 9.966589626007941" Properties=species:S:1:pos:R:3:initial_magmoms:R:1:castep_labels:S:1 n_minim_iter=3 pbc="T T T"
P       -0.17623478       2.16888559       5.21143586       0.00000000 NULL
P        1.88731948       1.69621066       9.83141157       0.00000000 NULL
P        1.83870220       1.54413008       5.10821764       0.00000000 NULL
P        0.19771203       1.75798398       8.29546090       0.00000000 NULL
P        4.13109612       0.20457043       1.96384583       0.00000000 NULL
P        1.58358971      -0.49901343       5.14990058       0.00000000 NULL
P        4.20133018      -0.94700421       4.96788998       0.00000000 NULL
P        3.58536190       2.10183045       2.56447140       0.00000000 NULL
P        2.83180730       4.15387730       2.89449847       0.00000000 NULL
P        1.36008025       0.43340411       2.73555880       0.00000000 NULL
P        2.41659128      -1.59137083       9.02666499       0.00000000 NULL
11
Lattice="4.77350280209548 -0.03529271077392511 -0.1619195109468682 -0.38746685923506935 5.540563677719879 0.05141930907628629 -1.0496211215700844 -2.3162333142186635 9.780083414955172" Properties=species:S:1:pos:R:3:initial_magmoms:R:1:castep_labels:S:1 n_minim_iter=4 pbc="T T T"
P       -0.29333540       2.19081177       5.11976643       0.00000000 NULL
P        1.71511500       1.73023337       9.60525187       0.00000000 NULL
P        1.76282889       1.56071274       4.97893955       0.00000000 NULL
P        0.03734300       1.78963846       8.13867836       0.00000000 NULL
P        4.16077870       0.19547970       1.83871917       0.00000000 NULL
P        1.51068744      -0.48909382       5.01741501       0.00000000 NULL
P        4.17279398      -0.94864122       4.78761562       0.00000000 NULL
P        3.58476562       2.10041113       2.45725248       0.00000000 NULL
P        2.80064746       4.15132387       2.80280452       0.00000000 NULL
P        1.33243383       0.43907750       2.65930983       0.00000000 NULL
P        2.28242477      -1.57352880       8.79944195       0.00000000 NULL
11
Lattice="5.21731758781275 -0.15993984904394432 -0.6536489073882291 -0.5688096744108381 5.5101978637594 0.2006985761327301 -2.139689721452813 -2.070412267321223 8.827397258769428" Properties=species:S:1:pos:R:3:initial_magmoms:R:1:castep_labels:S:1 n_minim_iter=5 pbc="T T T"
P       -0.94956588       2.29760708       4.65761390       0.00000000 NULL
P        0.76945892       1.89588435       8.44205417       0.00000000 NULL
P        1.33885230       1.63443386       4.30686590       0.00000000 NULL
P       -0.85600987       1.95401506       7.32968962       0.00000000 NULL
P        4.34956533       0.12388476       1.16764504       0.00000000 NULL
P        1.11763159      -0.43910370       4.32252252       0.00000000 NULL
P        4.04391001      -0.97168077       3.83663029       0.00000000 NULL
P        3.58890576       2.05831274       1.88422042       0.00000000 NULL
P        2.61665243       4.09945352       2.31649427       0.00000000 NULL
P        1.18974463       0.45945049       2.25576779       0.00000000 NULL
P        1.56266886      -1.47647390       7.61555452       0.00000000 NULL
11
Lattice="5.488412811728977 -0.17946867964454633 -0.5454124399162253 -0.6117976495511277 5.6252209471203445 0.256631755373484 -1.930239319900801 -1.9987467390379448 9.351344300377264" Properties=species:S:1:pos:R:3:initial_magmoms:R:1:castep_labels:S:1 n_minim_iter=6 pbc="T T T"
P       -0.83612349       2.40161662       4.97489384       0.00000000 NULL
P        1.13819709       2.03699063       9.06316550       0.00000000 NULL
P        1.55811736       1.73296070       4.66446045       0.00000000 NULL
P       -0.66220993       2.09141157       7.82869008       0.00000000 NULL
P        4.63491804       0.14042435       1.36392177       0.00000000 NULL
P        1.33724079      -0.40524546       4.64978740       0.00000000 NULL
P        4.42981019      -0.94829119       4.24046171       0.00000000 NULL
P        3.85691708       2.11953669       2.14592036       0.00000000 NULL
P        2.81455229       4.19872917       2.58142182       0.00000000 NULL
P        1.35286466       0.49777858       2.45366817       0.00000000 NULL
P        1.93205975      -1.42228715       8.17597521       0.00000000 NULL
11
Lattice="5.293877340820241 -0.19165501914889968 -0.5864134587465425 -0.6123206864440102 5.447851320363768 0.2548646075569597 -1.985791471787917 -1.9286013819321002 9.008782799118977" Properties=species:S:1:pos:R:3:initial_magmoms:R:1:castep_labels:S:1 n_minim_iter=7 pbc="T T T"
P       -0.88390943       2.32793018       4.78927675       0.00000000 NULL
P        0.95691624       1.97138885       8.69534016       0.00000000 NULL
P        1.42202358       1.67395456       4.46602944       0.00000000 NULL
P       -0.75256328       2.02844680       7.53139353       0.00000000 NULL
P        4.44574039       0.12217129       1.25481621       0.00000000 NULL
P        1.21881083      -0.39620807       4.45186876       0.00000000 NULL
P        4.21328131      -0.93644940       4.02602241       0.00000000 NULL
P        3.67890997       2.03934318       2.02212563       0.00000000 NULL
P        2.65821802       4.05707546       2.45016761       0.00000000 NULL
P        1.26545093       0.47810697       2.34648901       0.00000000 NULL
P        1.74687176      -1.38858265       7.83794222       0.00000000 NULL
11
Lattice="5.283217496042817 -0.2035876049957861 -0.5989875920652912 -0.6258373572458762 5.464701417334396 0.2529807366170388 -2.0058668184380415 -1.9389062893504914 8.993851596162884" Properties=species:S:1:pos:R:3:initial_magmoms:R:1:castep_labels:S:1 n_minim_iter=8 pbc="T T T"
P       -0.90311577       2.33093208       4.77822450       0.00000000 NULL
P        0.92271962       1.96524208       8.66896074       0.00000000 NULL
P        1.39589392       1.67612940       4.45166342       0.00000000 NULL
P       -0.78205011       2.03003281       7.51436431       0.00000000 NULL
P        4.43253980       0.11317154       1.23444911       0.00000000 NULL
P        1.19998945      -0.40802209       4.43773443       0.00000000 NULL
P        4.19506977      -0.95471250       4.01085388       0.00000000 NULL
P        3.65934150       2.03534464       2.00853800       0.00000000 NULL
P        2.62776691       4.05922648       2.43415857       0.00000000 NULL
P        1.25599348       0.47511934       2.33877689       0.00000000 NULL
P        1.71879206      -1.40701239       7.81676657       0.00000000 NULL
11
Lattice="5.276247985006417 -0.23228194418938147 -0.6164496093108255 -0.6596907092332136 5.480466717711437 0.24770537049164704 -2.0286328719218227 -1.9526513158317922 8.980828322970613" Properties=species:S:1:pos:R:3:initial_magmoms:R:1:castep_labels:S:1 n_minim_iter=9 pbc="T T T"
P       -0.93476086       2.32868885       4.76467905       0.00000000 NULL
P        0.87736602       1.94300502       8.63607893       0.00000000 NULL
P        1.35593489       1.67238465       4.43495906       0.00000000 NULL
P       -0.82898364       2.02624321       7.49510667       0.00000000 NULL
P        4.42102494       0.09032003       1.20324451       0.00000000 NULL
P        1.17671148      -0.43185364       4.42150014       0.00000000 NULL
P        4.18188507      -0.99385097       3.99795806       0.00000000 NULL
P        3.63386280       2.01605422       1.99173974       0.00000000 NULL
P        2.57585030       4.04632038       2.41052171       0.00000000 NULL
P        1.24674747       0.46608285       2.33083998       0.00000000 NULL
P        1.68739063      -1.44319317       7.79510861       0.00000000 NULL
11
Lattice="5.281656500890256 -0.2831155768245872 -0.6269090479666567 -0.7209478525391743 5.459403304933156 0.233845150169637 -2.0262716979156545 -1.9614243405123073 8.983343940540102" Properties=species:S:1:pos:R:3:initial_magmoms:R:1:castep_labels:S:1 n_minim_iter=10 pbc="T T T"
P       -0.96717561       2.30275332       4.75400136       0.00000000 NULL
P        0.85057927       1.88193291       8.61364570       0.00000000 NULL
P        1.31744737       1.64436199       4.42616363       0.00000000 NULL
P       -0.87420581       1.99945514       7.48440962       0.00000000 NULL
P        4.42148742       0.04591554       1.17501256       0.00000000 NULL
P        1.16647821      -0.46778029       4.41514020       0.00000000 NULL
P        4.19581199      -1.05710381       4.00593282       0.00000000 NULL
P        3.61360988       1.96093428       1.98241899       0.00000000 NULL
P        2.51218247       3.98627454       2.38683389       0.00000000 NULL
P        1.24747641       0.44456336       2.33009390       0.00000000 NULL
P        1.68306841      -1.49618070       7.79274767       0.00000000 NULL
11
Lattice="5.25220222849348 -0.4162815939926959 -0.6659132029396793 -0.8782650646006543 5.429120546758147 0.17000117585395594 -2.039293974468584 -2.0476371243737694 9.017120532937835" Properties=species:S:1:pos:R:3:initial_magmoms:R:1:castep_labels:S:1 n_minim_iter=11 pbc="T T T"
P       -1.06397472       2.21603730       4.72365731       0.00000000 NULL
P        0.73679877       1.66925789       8.55425489       0.00000000 NULL
P        1.18862303       1.54921639       4.39459411       0.00000000 NULL
P       -1.01511408       1.89647149       7.45854353       0.00000000 NULL
P        4.37652374      -0.08048658       1.09656770       0.00000000 NULL
P        1.11180968      -0.58698114       4.40549629       0.00000000 NULL
P        4.17351061      -1.25618712       4.02304069       0.00000000 NULL
P        3.51669733       1.81146153       1.93980202       0.00000000 NULL
P        2.31961851       3.83455146       2.30476755       0.00000000 NULL
P        1.22555668       0.37478806       2.32584623       0.00000000 NULL
P        1.62352082      -1.68440494       7.79737597       0.00000000 NULL
11
Lattice="5.340475608468144 -0.5290150352674444 -0.6748447361547434 -1.0196309829685466 5.447753536893389 0.13785497789331783 -2.0138137637601354 -2.096048315140359 9.233622591557168" Properties=species:S:1:pos:R:3:initial_magmoms:R:1:castep_labels:S:1 n_minim_iter=12 pbc="T T T"
P       -1.12016724       2.18208582       4.81540891       0.00000000 NULL
P        0.74743995       1.53651420       8.72252362       0.00000000 NULL
P        1.16432435       1.49380783       4.48369725       0.00000000 NULL
P       -1.08113793       1.86282262       7.61529333       0.00000000 NULL
P        4.43903546      -0.18144262       1.10569343       0.00000000 NULL
P        1.13961172      -0.66046168       4.50876487       0.00000000 NULL
P        4.27042374      -1.40439963       4.15162529       0.00000000 NULL
P        3.52997883       1.71416071       1.97984339       0.00000000 NULL
P        2.25351539       3.75276616       2.33088672       0.00000000 NULL
P        1.25519421       0.32806306       2.38684066       0.00000000 NULL
P        1.68100961      -1.80915524       7.98347816       0.00000000 NULL
11
Lattice="5.24642393085825 -0.5313301354601451 -0.6887098075563245 -1.0156013809455493 5.379849945073889 0.13491183159304299 -2.029333694069049 -2.0735629738987864 9.111513519855773" Properties=species:S:1:pos:R:3:initial_magmoms:R:1:castep_labels:S:1 n_minim_iter=13 pbc="T T T"
P       -1.13417774       2.15122258       4.74780609       0.00000000 NULL
P        0.67598231       1.50616849       8.58951546       0.00000000 NULL
P        1.10897280       1.47049347       4.41147292       0.00000000 NULL
P       -1.11199075       1.83735222       7.50852517       0.00000000 NULL
P        4.34913220      -0.18722651       1.06796735       0.00000000 NULL
P        1.08908036      -0.65732705       4.43892999       0.00000000 NULL
P        4.16880014      -1.39941980       4.07528027       0.00000000 NULL
P        3.44688019       1.68443383       1.93507371       0.00000000 NULL
P        2.18695423       3.69802680       2.28387991       0.00000000 NULL
P        1.21671729       0.32033703       2.34855509       0.00000000 NULL
P        1.60114579      -1.79811908       7.86204135       0.00000000 NULL
11
Lattice="5.250825471071347 -0.5419811364219452 -0.6950261123664568 -1.028672742121174 5.397544768677488 0.13078630056164678 -2.038456630233781 -2.087771804717081 9.130505175473346" Properties=species:S:1:pos:R:3:initial_magmoms:R:1:castep_labels:S:1 n_minim_iter=14 pbc="T T T"
P       -1.14525971       2.15233424       4.75439549       0.00000000 NULL
P        0.66434444       1.49445269       8.59899641       0.00000000 NULL
P        1.09898857       1.46942282       4.41540024       0.00000000 NULL
P       -1.12812933       1.83799060       7.52024415       0.00000000 NULL
P        4.34921399      -0.19629111       1.06313908       0.00000000 NULL
P        1.08424137      -0.66780170       4.44538244       0.00000000 NULL
P        4.16704098      -1.41751154       4.08152771       0.00000000 NULL
P        3.44127410       1.68090871       1.93351897       0.00000000 NULL
P        2.17456707       3.70086701       2.28194274       0.00000000 NULL
P        1.21516573       0.31635935       2.35200034       0.00000000 NULL
P        1.59267707      -1.81718060       7.87378420       0.00000000 NULL
11
Lattice="5.24571795746679 -0.5524266482429648 -0.7009520667027026 -1.040810386237259 5.400169314970839 0.12707824663976425 -2.0454085654039904 -2.094676373914186 9.135575720387864" Properties=species:S:1:pos:R:3:initial_magmoms:R:1:castep_labels:S:1 n_minim_iter=15 pbc="T T T"
P       -1.15540639       2.14797964       4.75396392       0.00000000 NULL
P        0.64965854       1.47906100       8.59511068       0.00000000 NULL
P        1.08572357       1.46426805       4.41247367       0.00000000 NULL
P       -1.14400318       1.83479961       7.52079579       0.00000000 NULL
P        4.34069998      -0.20565929       1.05609042       0.00000000 NULL
P        1.07630083      -0.67591966       4.44483679       0.00000000 NULL
P        4.15694564      -1.43232042       4.08106020       0.00000000 NULL
P        3.42846064       1.67200292       1.92886291       0.00000000 NULL
P        2.15705136       3.69282446       2.27660464       0.00000000 NULL
P        1.21090835       0.31146857       2.35196776       0.00000000 NULL
P        1.57965671      -1.83110009       7.87308527       0.00000000 NULL
11
Lattice="5.233604800467804 -0.5919091051496693 -0.7201199463008882 -1.0872089909331761 5.402923833648847 0.11468814755441982 -2.0656008145472424 -2.1142375621948566 9.161910241178466" Properties=species:S:1:pos:R:3:initial_magmoms:R:1:castep_labels:S:1 n_minim_iter=16 pbc="T T T"
P       -1.18975760       2.13031662       4.75745768       0.00000000 NULL
P        0.60535531       1.42176398       8.59031764       0.00000000 NULL
P        1.04233543       1.44418874       4.40744187       0.00000000 NULL
P       -1.19799988       1.82374151       7.53080622       0.00000000 NULL
P        4.31557305      -0.24066228       1.03410012       0.00000000 NULL
P        1.05262078      -0.70380214       4.44814014       0.00000000 NULL
P        4.12877634      -1.48493758       4.08671103       0.00000000 NULL
P        3.38720771       1.63665570       1.91674793       0.00000000 NULL
P        2.09705197       3.65801652       2.26220229       0.00000000 NULL
P        1.19940649       0.29317261       2.35555484       0.00000000 NULL
P        1.54086261      -1.87852888       7.87909552       0.00000000 NULL
11
Lattice="5.210197114427034 -0.6687663214745995 -0.7444416075345263 -1.1775417350553021 5.360853516737266 0.10561729524886283 -2.076172156554905 -2.102242839080105 9.206635142302586" Properties=species:S:1:pos:R:3:initial_magmoms:R:1:castep_labels:S:1 n_minim_iter=17 pbc="T T T"
P       -1.23786218       2.09091009       4.77150674       0.00000000 NULL
P        0.55356324       1.32254543       8.59003247       0.00000000 NULL
P        0.97471409       1.40572428       4.40711994       0.00000000 NULL
P       -1.28054598       1.81474265       7.55929526       0.00000000 NULL
P        4.26808604      -0.30525272       1.00407693       0.00000000 NULL
P        1.02086119      -0.73686254       4.45937375       0.00000000 NULL
P        4.08627849      -1.56090665       4.11045978       0.00000000 NULL
P        3.31157067       1.55904207       1.91068276       0.00000000 NULL
P        1.98719038       3.56264848       2.25539221       0.00000000 NULL
P        1.18709045       0.26101752       2.37060402       0.00000000 NULL
P        1.49155577      -1.93060341       7.89249593       0.00000000 NULL
11
Lattice="5.230828346579412 -0.6936551469045231 -0.7743830872901821 -1.2088345511206684 5.4659062648468 0.11758002208024843 -2.1326391931396866 -2.1250799093330905 9.246104999626965" Properties=species:S:1:pos:R:3:initial_magmoms:R:1:castep_labels:S:1 n_minim_iter=18 pbc="T T T"
P       -1.27021069       2.12924352       4.79555025       0.00000000 NULL
P        0.51477976       1.33875442       8.60090757       0.00000000 NULL
P        0.94042672       1.44986838       4.41268705       0.00000000 NULL
P       -1.34720229       1.87930789       7.59675516       0.00000000 NULL
P        4.26560312      -0.31357303       0.97524038       0.00000000 NULL
P        0.99481823      -0.75149101       4.46965039       0.00000000 NULL
P        4.06379598      -1.59006138       4.11787419       0.00000000 NULL
P        3.28945365       1.59069570       1.90742264       0.00000000 NULL
P        1.94638119       3.62226487       2.26340789       0.00000000 NULL
P        1.18443034       0.26738943       2.38234468       0.00000000 NULL
P        1.44413528      -1.96205328       7.89906662       0.00000000 NULL
11
Lattice="5.17633059676399 -0.6843356613436129 -0.7691474363880932 -1.1937346452861908 5.380507970788178 0.11986267009792516 -2.117774206757416 -2.0849053335185563 9.165363630482918" Properties=species:S:1:pos:R:3:initial_magmoms:R:1:castep_labels:S:1 n_minim_iter=19 pbc="T T T"
P       -1.25650268       2.09784763       4.75516908       0.00000000 NULL
P        0.50637964       1.32285429       8.52469178       0.00000000 NULL
P        0.92887345       1.42993919       4.37405078       0.00000000 NULL
P       -1.33684826       1.85775450       7.53284924       0.00000000 NULL
P        4.21806346      -0.30854675       0.96476634       0.00000000 NULL
P        0.97896316      -0.73551143       4.43097690       0.00000000 NULL
P        4.01709893      -1.56273901       4.08197398       0.00000000 NULL
P        3.25295309       1.56718015       1.89202887       0.00000000 NULL
P        1.92539216       3.56579539       2.24596594       0.00000000 NULL
P        1.17140760       0.26513686       2.36358227       0.00000000 NULL
P        1.42203153      -1.92822930       7.82825521       0.00000000 NULL
11
Lattice="5.191478198489843 -0.6879076570650037 -0.7687172078504194 -1.1991070399312265 5.382011011500048 0.12167024688444567 -2.117223324619925 -2.0815129994991173 9.185443272089692" Properties=species:S:1:pos:R:3:initial_magmoms:R:1:castep_labels:S:1 n_minim_iter=20 pbc="T T T"
P       -1.25573866       2.09847760       4.76706683       0.00000000 NULL
P        0.51651680       1.32262803       8.54360676       0.00000000 NULL
P        0.93462177       1.43158877       4.38479183       0.00000000 NULL
P       -1.33728509       1.86274660       7.55147854       0.00000000 NULL
P        4.22998201      -0.31053641       0.96782911       0.00000000 NULL
P        0.98485265      -0.73534578       4.44220078       0.00000000 NULL
P        4.03056569      -1.56354237       4.09535625       0.00000000 NULL
P        3.26216521       1.56661130       1.89912588       0.00000000 NULL
P        1.92968911       3.56483824       2.25423780       0.00000000 NULL
P        1.17784535       0.26515465       2.37106847       0.00000000 NULL
P        1.43182172      -1.92775251       7.84552791       0.00000000 NULL
11
Lattice="5.192189227744417 -0.689143628889984 -0.7689857961236015 -1.2006383596106802 5.374451991487417 0.12372927800106263 -2.1172836496112635 -2.074250522921006 9.185036141509576" Properties=species:S:1:pos:R:3:initial_magmoms:R:1:castep_labels:S:1 n_minim_iter=21 pbc="T T T"
P       -1.25436313       2.09580519       4.76824859       0.00000000 NULL
P        0.51900812       1.32151524       8.54214438       0.00000000 NULL
P        0.93467932       1.43163801       4.38471508       0.00000000 NULL
P       -1.33865930       1.86517388       7.55305466       0.00000000 NULL
P        4.22906099      -0.31094735       0.96653285       0.00000000 NULL
P        0.98431505      -0.73316138       4.44264313       0.00000000 NULL
P        4.02957527      -1.56032821       4.09701482       0.00000000 NULL
P        3.26071502       1.56451186       1.90035971       0.00000000 NULL
P        1.92728836       3.55878176       2.25639671       0.00000000 NULL
P        1.17908495       0.26536913       2.37260320       0.00000000 NULL
P        1.43171033      -1.92309720       7.84370927       0.00000000 NULL
