8
Lattice="3.99652 2.5041137974754906e-15 2.9686993676992896e-15 1.319322844930758 4.728109288472912 -3.510266162515821e-15 1.799930657730398 -0.35652980574884596 9.195628160874863" Properties=species:S:1:pos:R:3:initial_magmoms:R:1:castep_labels:S:1 n_minim_iter=1 pbc="T T T"
P        2.83692627       0.22614773       8.26504622       0.00000000 NULL
P        2.08634950       2.50233439       0.28511229       0.00000000 NULL
P        4.79320956       0.36548325       8.75843305       0.00000000 NULL
P        1.34459775       2.41588380       3.22896115       0.00000000 NULL
P        5.95508933       1.99341095       8.86736998       0.00000000 NULL
P        3.45218126       4.04830590       4.30464090       0.00000000 NULL
P        5.26968575       3.45648755       5.06023923       0.00000000 NULL
P        2.97593758       2.14200919       2.05852872       0.00000000 NULL
8
Lattice="4.008613275296135 0.0008310649537080667 0.0007095920829736114 1.3242982486057508 4.7342697151586055 0.002805837457470703 1.8069357277593991 -0.351597919983084 9.207811027708841" Properties=species:S:1:pos:R:3:initial_magmoms:R:1:castep_labels:S:1 n_minim_iter=2 pbc="T T T"
P        2.84693804       0.23115128       8.27615165       0.00000000 NULL
P        2.09327875       2.50637738       0.28724413       0.00000000 NULL
P        4.80926346       0.37130874       8.77102822       0.00000000 NULL
P        1.34956804       2.42087846       3.23480798       0.00000000 NULL
P        5.97515780       2.00237500       8.88102496       0.00000000 NULL
P        3.46413787       4.05651159       4.31302583       0.00000000 NULL
P        5.28737982       3.46460245       5.06985824       0.00000000 NULL
P        2.98595580       2.14638543       2.06315020       0.00000000 NULL
8
Lattice="4.407711208697862 0.030818028471555382 0.025734647918634078 1.4915239003335974 4.935945434900477 0.09594445380685564 2.0415844890963797 -0.18747697083060952 9.600855872307243" Properties=species:S:1:pos:R:3:initial_magmoms:R:1:castep_labels:S:1 n_minim_iter=3 pbc="T T T"
P        3.18048645       0.39768030       8.63472724       0.00000000 NULL
P        2.32388322       2.63996747       0.35839667       0.00000000 NULL
P        5.34240946       0.56646352       9.17909358       0.00000000 NULL
P        1.51619877       2.58538563       3.42487508       0.00000000 NULL
P        6.64263844       2.30090435       9.32490800       0.00000000 NULL
P        3.86301331       4.32722326       4.58665976       0.00000000 NULL
P        5.87575905       3.73412205       5.38390484       0.00000000 NULL
P        3.31904452       2.29185105       2.21488064       0.00000000 NULL
8
Lattice="4.51447457750144 0.08932100561781715 0.06189205636863885 1.5959807330562885 5.0185089488387415 0.12431086515575747 2.167643832955925 -0.13394337305405726 9.644765437765285" Properties=species:S:1:pos:R:3:initial_magmoms:R:1:castep_labels:S:1 n_minim_iter=4 pbc="T T T"
P        3.33210697       0.46461217       8.67997301       0.00000000 NULL
P        2.42156167       2.71096582       0.38888613       0.00000000 NULL
P        5.54930404       0.66503163       9.25365378       0.00000000 NULL
P        1.61551915       2.64986980       3.45814508       0.00000000 NULL
P        6.91554938       2.45226123       9.41109298       0.00000000 NULL
P        4.05526776       4.44544831       4.64568380       0.00000000 NULL
P        6.11391174       3.87439845       5.45598621       0.00000000 NULL
P        3.44771397       2.37264408       2.26155908       0.00000000 NULL
8
Lattice="4.547959645384431 0.163189916456605 0.10441240468460695 1.6944258549344082 5.064975596615842 0.1377618227534133 2.273970247989782 -0.10347902136916717 9.609758201117065" Properties=species:S:1:pos:R:3:initial_magmoms:R:1:castep_labels:S:1 n_minim_iter=5 pbc="T T T"
P        3.44512746       0.51221025       8.65533804       0.00000000 NULL
P        2.49220278       2.76585579       0.41085118       0.00000000 NULL
P        5.68256605       0.74884219       9.25611621       0.00000000 NULL
P        1.70446688       2.68744702       3.45645432       0.00000000 NULL
P        7.10197701       2.57551543       9.41936111       0.00000000 NULL
P        4.20902020       4.52541398       4.65781434       0.00000000 NULL
P        6.27562407       3.98653363       5.47571039       0.00000000 NULL
P        3.53190843       2.43917838       2.28605452       0.00000000 NULL
8
Lattice="4.580015957624363 0.3051595072738693 0.17678934205555802 1.8729662766228212 5.137275759204115 0.15987572358021776 2.4422752113139468 -0.04491737970959529 9.552571207177452" Properties=species:S:1:pos:R:3:initial_magmoms:R:1:castep_labels:S:1 n_minim_iter=6 pbc="T T T"
P        3.61958937       0.60279394       8.61596219       0.00000000 NULL
P        2.61083223       2.86126552       0.44710661       0.00000000 NULL
P        5.87932815       0.90880170       9.26226709       0.00000000 NULL
P        1.85502446       2.75014191       3.45451373       0.00000000 NULL
P        7.39161017       2.80276230       9.43589655       0.00000000 NULL
P        4.46793304       4.66439859       4.67941947       0.00000000 NULL
P        6.53107608       4.18940112       5.50986918       0.00000000 NULL
P        3.66644334       2.55833830       2.32698931       0.00000000 NULL
8
Lattice="4.611964025924155 0.6226670537071419 0.3019034402626112 2.259142298714723 5.338985404440119 0.21850959763059194 2.7162150711243913 0.1244811473033819 9.53354711031612" Properties=species:S:1:pos:R:3:initial_magmoms:R:1:castep_labels:S:1 n_minim_iter=7 pbc="T T T"
P        3.90355686       0.84205439       8.61898717       0.00000000 NULL
P        2.85452683       3.09935942       0.52126907       0.00000000 NULL
P        6.18889121       1.30492154       9.35022974       0.00000000 NULL
P        2.13855101       2.92317803       3.49493263       0.00000000 NULL
P        7.90061903       3.37255413       9.55340020       0.00000000 NULL
P        4.97829878       5.03110566       4.77429272       0.00000000 NULL
P        7.00099107       4.69622357       5.62767733       0.00000000 NULL
P        3.92660667       2.85084057       2.42416555       0.00000000 NULL
8
Lattice="4.524780237292319 0.7733185116913331 0.2687607604619326 2.4085905671501266 5.605331091581991 0.235633015946147 2.587251805891548 0.23057876117989773 9.60578238187814" Properties=species:S:1:pos:R:3:initial_magmoms:R:1:castep_labels:S:1 n_minim_iter=8 pbc="T T T"
P        3.77270586       0.98690441       8.66425082       0.00000000 NULL
P        2.91442979       3.31554989       0.51945648       0.00000000 NULL
P        6.00754613       1.52338656       9.39862384       0.00000000 NULL
P        2.14381797       3.10419743       3.55103938       0.00000000 NULL
P        7.78558882       3.77105463       9.60011691       0.00000000 NULL
P        5.04206405       5.37020690       4.81506809       0.00000000 NULL
P        6.96776493       5.07999018       5.64384771       0.00000000 NULL
P        3.93962892       3.07939298       2.43261870       0.00000000 NULL
8
Lattice="4.557282782348164 0.8592896275139165 0.2942407859116657 2.52102893389712 5.578900231405572 0.1657920063674414 2.6528478498601498 0.12123914371090595 9.609857153410061" Properties=species:S:1:pos:R:3:initial_magmoms:R:1:castep_labels:S:1 n_minim_iter=9 pbc="T T T"
P        3.84943231       0.91326079       8.66467026       0.00000000 NULL
P        2.99234955       3.32546894       0.48504082       0.00000000 NULL
P        6.10389256       1.47077050       9.41675475       0.00000000 NULL
P        2.21776501       3.05175328       3.52807456       0.00000000 NULL
P        7.93671256       3.73292573       9.58518234       0.00000000 NULL
P        5.18597958       5.32530226       4.76044456       0.00000000 NULL
P        7.12184409       5.06774393       5.61125054       0.00000000 NULL
P        4.02831999       3.08659486       2.41377165       0.00000000 NULL
8
Lattice="4.5673742275705544 0.883133810158007 0.2925738982867184 2.552569317945199 5.677874397075606 0.17250084487843767 2.651430281837291 0.1392263502602277 9.655278489965731" Properties=species:S:1:pos:R:3:initial_magmoms:R:1:castep_labels:S:1 n_minim_iter=10 pbc="T T T"
P        3.85225361       0.94182723       8.70216627       0.00000000 NULL
P        3.01640196       3.39284102       0.48954463       0.00000000 NULL
P        6.11105191       1.50950751       9.46073878       0.00000000 NULL
P        2.22751149       3.10877415       3.55342990       0.00000000 NULL
P        7.96154717       3.82951603       9.62883240       0.00000000 NULL
P        5.21827558       5.43059981       4.78576935       0.00000000 NULL
P        7.15665024       5.17396659       5.64131868       0.00000000 NULL
P        4.05040058       3.15123950       2.42517698       0.00000000 NULL
8
Lattice="4.545044962966122 0.8953095094594625 0.29232393121828976 2.559602568887954 5.6819802430087165 0.1534088555842462 2.639712404322192 0.10773222559571306 9.638310499491181" Properties=species:S:1:pos:R:3:initial_magmoms:R:1:castep_labels:S:1 n_minim_iter=11 pbc="T T T"
P        3.83596378       0.91782695       8.68395296       0.00000000 NULL
P        3.01454348       3.39892586       0.47801766       0.00000000 NULL
P        6.08397081       1.48530225       9.44335947       0.00000000 NULL
P        2.22451687       3.09918858       3.54140899       0.00000000 NULL
P        7.93306419       3.81421046       9.60037578       0.00000000 NULL
P        5.21189660       5.42388741       4.75988537       0.00000000 NULL
P        7.13853994       5.16939068       5.61693426       0.00000000 NULL
P        4.04086212       3.15318123       2.41109236       0.00000000 NULL
