13
Lattice="3.23504 1.4150705431906764e-16 -1.7957331960591143e-15 -1.1380043113739107 8.268605873410248 2.1466448188594484e-15 -1.3643066458834852 -2.708011030487823 10.958287404569864" Properties=species:S:1:pos:R:3:initial_magmoms:R:1:castep_labels:S:1 n_minim_iter=1 pbc="T T T"
P        1.48775590       7.12641718       1.93534643       0.00000000 NULL
P        0.27066266       1.93554312       9.03630023       0.00000000 NULL
P       -1.08905759       2.51230966       4.81171825       0.00000000 NULL
P        1.06854343       0.44378029       1.75414128       0.00000000 NULL
P        0.06107677       5.41302269       3.82775609       0.00000000 NULL
P        1.29114755       6.18321757       6.51162149       0.00000000 NULL
P       -0.58748780       1.37570703       2.85977878       0.00000000 NULL
P        0.62204866      -0.70613575       6.88134534       0.00000000 NULL
P        1.02792378       2.45972148       2.30704386       0.00000000 NULL
P       -0.43001904       3.51552634       3.20305043       0.00000000 NULL
P       -1.55685153       6.42955545       4.46364688       0.00000000 NULL
P       -0.86719372       3.50551479       9.67492620       0.00000000 NULL
P        1.68575774       5.21398955       2.58071065       0.00000000 NULL
13
Lattice="3.246677101485265 -5.1583825875061695e-05 0.00025759698056729925 -1.1422297917351225 8.305514179652244 0.0017175315384517938 -1.3682985790831044 -2.7176746767749362 10.983007335695376" Properties=species:S:1:pos:R:3:initial_magmoms:R:1:castep_labels:S:1 n_minim_iter=2 pbc="T T T"
P        1.49316169       7.15889876       1.94129037       0.00000000 NULL
P        0.27247690       1.94626491       9.05776819       0.00000000 NULL
P       -1.09263488       2.52437571       4.82353718       0.00000000 NULL
P        1.07248365       0.44575193       1.75812719       0.00000000 NULL
P        0.06164815       5.43796725       3.83802370       0.00000000 NULL
P        1.29603729       6.21204286       6.52839179       0.00000000 NULL
P       -0.58945625       1.38206742       2.86713596       0.00000000 NULL
P        0.62502384      -0.70766136       6.89720329       0.00000000 NULL
P        1.03184227       2.47157666       2.31255643       0.00000000 NULL
P       -0.43138655       3.53208839       3.21128647       0.00000000 NULL
P       -1.56221158       6.45973644       4.47551752       0.00000000 NULL
P       -0.86975567       3.52318021       9.69802796       0.00000000 NULL
P        1.69185453       5.23750715       2.58751956       0.00000000 NULL
13
Lattice="3.476651999447128 -0.0010639605709643664 0.005674766102711417 -1.2257166635169017 9.049909101411325 0.034692298974020534 -1.4460879906895785 -2.914697693377436 11.471267840443138" Properties=species:S:1:pos:R:3:initial_magmoms:R:1:castep_labels:S:1 n_minim_iter=3 pbc="T T T"
P        1.60024119       7.81399881       2.05803497       0.00000000 NULL
P        0.30942101       2.16127990       9.48169759       0.00000000 NULL
P       -1.16279327       2.76654960       5.05651135       0.00000000 NULL
P        1.15054021       0.48466225       1.83667247       0.00000000 NULL
P        0.07346119       5.94029989       4.04035291       0.00000000 NULL
P        1.39322471       6.79218202       6.85926024       0.00000000 NULL
P       -0.62812491       1.50926365       3.01263841       0.00000000 NULL
P        0.68468663      -0.73979958       7.21041021       0.00000000 NULL
P        1.10955710       2.71066638       2.42097413       0.00000000 NULL
P       -0.45814908       3.86573665       3.37370805       0.00000000 NULL
P       -1.66771695       7.06828058       4.70938561       0.00000000 NULL
P       -0.91958438       3.87712739      10.15359532       0.00000000 NULL
P        1.81247666       5.71106568       2.72113386       0.00000000 NULL
13
Lattice="3.5406495698095384 -0.0006931583541004294 0.019122576312881993 -1.247281619004823 9.3796519710098 0.034898012232294856 -1.4278351956125699 -3.016347246443027 11.680409963980585" Properties=species:S:1:pos:R:3:initial_magmoms:R:1:castep_labels:S:1 n_minim_iter=4 pbc="T T T"
P        1.63932387       8.10395707       2.10464361       0.00000000 NULL
P        0.35390783       2.25257356       9.66544108       0.00000000 NULL
P       -1.16325667       2.86637446       5.14752320       0.00000000 NULL
P        1.17892357       0.49543204       1.87253747       0.00000000 NULL
P        0.09278817       6.15778136       4.12215370       0.00000000 NULL
P        1.44556003       7.04526714       7.00052125       0.00000000 NULL
P       -0.62833369       1.55769032       3.07589037       0.00000000 NULL
P        0.72776314      -0.76696683       7.34677965       0.00000000 NULL
P        1.13989881       2.81652482       2.46619891       0.00000000 NULL
P       -0.45402380       4.01102085       3.44105346       0.00000000 NULL
P       -1.68047481       7.33679845       4.79966060       0.00000000 NULL
P       -0.89763019       4.01411074      10.34039406       0.00000000 NULL
P        1.85581693       5.91836379       2.77309906       0.00000000 NULL
13
Lattice="3.528534880205473 0.0035337951943197323 0.03987600423803236 -1.2322160921682184 9.557068602231352 0.012885349563613627 -1.355964819190958 -3.096219535517297 11.770691545905091" Properties=species:S:1:pos:R:3:initial_magmoms:R:1:castep_labels:S:1 n_minim_iter=5 pbc="T T T"
P        1.65645561       8.26074752       2.11657441       0.00000000 NULL
P        0.41384192       2.29142647       9.74566037       0.00000000 NULL
P       -1.12374264       2.90823077       5.17386405       0.00000000 NULL
P        1.18675490       0.49412995       1.89107929       0.00000000 NULL
P        0.12545620       6.26626779       4.14891650       0.00000000 NULL
P        1.49032886       7.17536299       7.05711307       0.00000000 NULL
P       -0.60660096       1.57360220       3.10300288       0.00000000 NULL
P        0.77082361      -0.80066695       7.40850228       0.00000000 NULL
P        1.15383028       2.87324095       2.48277245       0.00000000 NULL
P       -0.42885569       4.08388977       3.46465519       0.00000000 NULL
P       -1.63953725       7.47608584       4.82176074       0.00000000 NULL
P       -0.82823933       4.05903474      10.40800829       0.00000000 NULL
P        1.87183588       6.02746317       2.78688533       0.00000000 NULL
13
Lattice="3.481967261660344 0.0050199371989220675 0.056525609368343076 -1.21203628815258 9.635874909838488 -0.014468596364919505 -1.2811715613909618 -3.151316748913833 11.810929400406863" Properties=species:S:1:pos:R:3:initial_magmoms:R:1:castep_labels:S:1 n_minim_iter=6 pbc="T T T"
P        1.64921041       8.32840229       2.11156019       0.00000000 NULL
P        0.45775944       2.29930459       9.77924420       0.00000000 NULL
P       -1.08086770       2.91737172       5.17527969       0.00000000 NULL
P        1.18062335       0.48554990       1.90017704       0.00000000 NULL
P        0.14760307       6.30576278       4.15233975       0.00000000 NULL
P        1.50797500       7.22542098       7.07423976       0.00000000 NULL
P       -0.58325259       1.57260182       3.11460777       0.00000000 NULL
P        0.79887095      -0.83274998       7.43622995       0.00000000 NULL
P        1.15192140       2.89666678       2.48547304       0.00000000 NULL
P       -0.40642810       4.11185069       3.46996715       0.00000000 NULL
P       -1.59319076       7.53471620       4.81792886       0.00000000 NULL
P       -0.76478261       4.05445708      10.42643482       0.00000000 NULL
P        1.86282450       6.07088427       2.78226955       0.00000000 NULL
13
Lattice="3.4580237122323827 0.0037732044332452488 0.0624667209689168 -1.2068001486891506 9.67700388631354 -0.02413407609459377 -1.2499055127134087 -3.174157071855005 11.838398418423266" Properties=species:S:1:pos:R:3:initial_magmoms:R:1:castep_labels:S:1 n_minim_iter=7 pbc="T T T"
P        1.63947924       8.36297249       2.11196733       0.00000000 NULL
P        0.47213097       2.30684749       9.80266977       0.00000000 NULL
P       -1.06429859       2.92476618       5.18102259       0.00000000 NULL
P        1.17578193       0.48103540       1.90534471       0.00000000 NULL
P        0.15236760       6.32741148       4.15882537       0.00000000 NULL
P        1.50779929       7.25287113       7.08854516       0.00000000 NULL
P       -0.57438906       1.57391740       3.12330940       0.00000000 NULL
P        0.80819672      -0.84656542       7.45409684       0.00000000 NULL
P        1.14764960       2.90892486       2.48844701       0.00000000 NULL
P       -0.39982976       4.12787858       3.47649338       0.00000000 NULL
P       -1.57696533       7.56772847       4.82266460       0.00000000 NULL
P       -0.74247181       4.05677315      10.44419636       0.00000000 NULL
P        1.85313716       6.09315358       2.78220033       0.00000000 NULL
13
Lattice="3.3257571910517307 -0.007047760410040854 0.08945053511760302 -1.187930033359869 9.905689604750913 -0.06783435109730242 -1.093662691374695 -3.2885782034356006 12.001578206806665" Properties=species:S:1:pos:R:3:initial_magmoms:R:1:castep_labels:S:1 n_minim_iter=8 pbc="T T T"
P        1.57337743       8.55430526       2.12006314       0.00000000 NULL
P        0.53356638       2.35740811       9.94293708       0.00000000 NULL
P       -0.98468713       2.97137123       5.22200803       0.00000000 NULL
P        1.14541579       0.45518854       1.93440282       0.00000000 NULL
P        0.16481672       6.44996726       4.20410133       0.00000000 NULL
P        1.48721595       7.40921238       7.17744348       0.00000000 NULL
P       -0.53197268       1.58476627       3.17691242       0.00000000 NULL
P        0.84816736      -0.91748222       7.55851131       0.00000000 NULL
P        1.11694332       2.97779892       2.50734368       0.00000000 NULL
P       -0.37351056       4.22019687       3.52006860       0.00000000 NULL
P       -1.50290545       7.75712899       4.86234532       0.00000000 NULL
P       -0.64160094       4.07871174      10.55726944       0.00000000 NULL
P        1.78905317       6.21651895       2.78556147       0.00000000 NULL
13
Lattice="3.1684483955855796 -0.04241806194080727 0.08561637433921125 -1.222997604556535 10.214377567784616 -0.04496703613344684 -1.010700883779596 -3.3421652277721914 12.240443671604995" Properties=species:S:1:pos:R:3:initial_magmoms:R:1:castep_labels:S:1 n_minim_iter=9 pbc="T T T"
P        1.42369583       8.81416055       2.17508158       0.00000000 NULL
P        0.49813642       2.49878006      10.16540817       0.00000000 NULL
P       -0.95995023       3.07820080       5.32150519       0.00000000 NULL
P        1.08773673       0.42085094       1.96825938       0.00000000 NULL
P        0.09633454       6.63996048       4.32050839       0.00000000 NULL
P        1.34371253       7.65851058       7.34345621       0.00000000 NULL
P       -0.52330779       1.62979309       3.27385638       0.00000000 NULL
P        0.82731460      -0.95899724       7.70225096       0.00000000 NULL
P        1.03928653       3.07984519       2.54403174       0.00000000 NULL
P       -0.40593071       4.37157753       3.62092948       0.00000000 NULL
P       -1.50967812       8.05790651       4.99847157       0.00000000 NULL
P       -0.65875491       4.18729535      10.76972112       0.00000000 NULL
P        1.65276636       6.38720163       2.81431624       0.00000000 NULL
13
Lattice="3.060743214869359 -0.03456258597303257 0.09033843195216362 -1.1650314604785856 10.400511100664074 0.039616328404390236 -0.9558589520753709 -3.2930440187788244 12.224600240004872" Properties=species:S:1:pos:R:3:initial_magmoms:R:1:castep_labels:S:1 n_minim_iter=10 pbc="T T T"
P        1.39836464       9.03030539       2.24923643       0.00000000 NULL
P        0.53233372       2.71954361      10.22544132       0.00000000 NULL
P       -0.90158054       3.17207882       5.32748963       0.00000000 NULL
P        1.05696236       0.37665427       1.96933148       0.00000000 NULL
P        0.10583116       6.78630715       4.40807061       0.00000000 NULL
P        1.31073427       7.89863492       7.41871118       0.00000000 NULL
P       -0.50053072       1.67555509       3.33263997       0.00000000 NULL
P        0.83613538      -0.93494480       7.69736205       0.00000000 NULL
P        1.01768329       3.18839203       2.54883517       0.00000000 NULL
P       -0.39628279       4.49546462       3.68667949       0.00000000 NULL
P       -1.44052591       8.31173340       5.09319938       0.00000000 NULL
P       -0.63242901       4.28445343      10.79487640       0.00000000 NULL
P        1.62292755       6.52973617       2.82251091       0.00000000 NULL
13
Lattice="3.2224440323398422 -0.09050290895816214 0.07941619285564283 -1.3648944330011539 10.751795971185361 0.11007623980266576 -1.0142234617408166 -3.289767532530654 12.164045823441176" Properties=species:S:1:pos:R:3:initial_magmoms:R:1:castep_labels:S:1 n_minim_iter=11 pbc="T T T"
P        1.34471363       9.32452158       2.29373637       0.00000000 NULL
P        0.50439416       2.88335864      10.21136000       0.00000000 NULL
P       -1.00872443       3.31740932       5.32694237       0.00000000 NULL
P        1.10067728       0.34785860       1.95762597       0.00000000 NULL
P       -0.00044636       7.02986368       4.44572757       0.00000000 NULL
P        1.23634040       8.18211450       7.43866153       0.00000000 NULL
P       -0.56641381       1.76596160       3.35211964       0.00000000 NULL
P        0.87167781      -0.92931951       7.66031727       0.00000000 NULL
P        1.01987827       3.29460486       2.54674659       0.00000000 NULL
P       -0.50169329       4.67841496       3.70761728       0.00000000 NULL
P       -1.65300403       8.66527949       5.13513660       0.00000000 NULL
P       -0.79159102       4.50006363      10.78371692       0.00000000 NULL
P        1.61572614       6.72541307       2.83372808       0.00000000 NULL
13
Lattice="3.128082283919751 -0.0802771036627942 0.08159843208874815 -1.3055637198548855 10.456631474637845 0.05086031715443357 -0.9755963128791881 -3.276051049899909 11.960485293179483" Properties=species:S:1:pos:R:3:initial_magmoms:R:1:castep_labels:S:1 n_minim_iter=12 pbc="T T T"
P        1.32478640       9.06733367       2.20516991       0.00000000 NULL
P        0.51064197       2.75534097      10.01578642       0.00000000 NULL
P       -0.96563604       3.19128406       5.20980018       0.00000000 NULL
P        1.07213315       0.32144712       1.92273268       0.00000000 NULL
P        0.01706041       6.81430326       4.32887563       0.00000000 NULL
P        1.22240934       7.92464684       7.26301920       0.00000000 NULL
P       -0.54344619       1.70047830       3.28324888       0.00000000 NULL
P        0.85626153      -0.95405688       7.52628710       0.00000000 NULL
P        0.99916180       3.19266935       2.48658040       0.00000000 NULL
P       -0.47561372       4.52669242       3.61454603       0.00000000 NULL
P       -1.58355948       8.39749275       4.99520865       0.00000000 NULL
P       -0.75058397       4.30199378      10.56210491       0.00000000 NULL
P        1.58477524       6.53112759       2.74987487       0.00000000 NULL
13
Lattice="3.135082865053952 -0.0757294726063507 0.08368009762665184 -1.296402820035727 10.475503890561233 0.04145593276450248 -0.9753040398887578 -3.296166693169057 11.95251731931907" Properties=species:S:1:pos:R:3:initial_magmoms:R:1:castep_labels:S:1 n_minim_iter=13 pbc="T T T"
P        1.33941821       9.08866745       2.19675699       0.00000000 NULL
P        0.52440118       2.75555198      10.00731199       0.00000000 NULL
P       -0.96057367       3.18778562       5.20203447       0.00000000 NULL
P        1.07649925       0.31489898       1.92131196       0.00000000 NULL
P        0.02664925       6.82387154       4.32090455       0.00000000 NULL
P        1.23627414       7.93560983       7.25223405       0.00000000 NULL
P       -0.54172646       1.70116458       3.28177540       0.00000000 NULL
P        0.86375645      -0.96369590       7.52108397       0.00000000 NULL
P        1.00639030       3.19892262       2.48158388       0.00000000 NULL
P       -0.47079166       4.53219338       3.60653688       0.00000000 NULL
P       -1.57531010       8.41142014       4.98252773       0.00000000 NULL
P       -0.74592209       4.29481277      10.54820399       0.00000000 NULL
P        1.59812606       6.54340312       2.74103245       0.00000000 NULL
13
Lattice="3.139363302971019 -0.0712814281789913 0.08601402847126455 -1.2865395820315557 10.485054341720511 0.02751204118371301 -0.9729267271795851 -3.31907442278059 11.919886782017203" Properties=species:S:1:pos:R:3:initial_magmoms:R:1:castep_labels:S:1 n_minim_iter=14 pbc="T T T"
P        1.35276019       9.10306506       2.17999452       0.00000000 NULL
P        0.54142080       2.75100558       9.97724079       0.00000000 NULL
P       -0.95376255       3.17715160       5.18113767       0.00000000 NULL
P        1.08043588       0.30253288       1.91572716       0.00000000 NULL
P        0.03597688       6.82564964       4.30136298       0.00000000 NULL
P        1.24846733       7.93680693       7.22323967       0.00000000 NULL
P       -0.53976816       1.70016200       3.27415377       0.00000000 NULL
P        0.87275300      -0.97755825       7.49983870       0.00000000 NULL
P        1.01284314       3.20131598       2.46968738       0.00000000 NULL
P       -0.46635586       4.53216341       3.58822917       0.00000000 NULL
P       -1.56598309       8.41814393       4.95494543       0.00000000 NULL
P       -0.74271292       4.27619544      10.50893860       0.00000000 NULL
P        1.61067634       6.54813346       2.72258524       0.00000000 NULL
13
Lattice="3.159720504864482 -0.06748923560267914 0.09078028698353784 -1.2840080639399187 10.535619411598162 0.0018386697599921393 -0.9685412279398121 -3.3694734871435195 11.791305946973523" Properties=species:S:1:pos:R:3:initial_magmoms:R:1:castep_labels:S:1 n_minim_iter=15 pbc="T T T"
P        1.37382124       9.16459290       2.13737803       0.00000000 NULL
P        0.58634800       2.75998992       9.86978727       0.00000000 NULL
P       -0.94541247       3.15997222       5.11162429       0.00000000 NULL
P        1.09333841       0.25887577       1.89459547       0.00000000 NULL
P        0.04497826       6.85133542       4.24371841       0.00000000 NULL
P        1.26413210       7.96421340       7.13246268       0.00000000 NULL
P       -0.54200742       1.71067342       3.24917001       0.00000000 NULL
P        0.90084236      -1.01224377       7.41729471       0.00000000 NULL
P        1.02565634       3.21483387       2.43209991       0.00000000 NULL
P       -0.46887066       4.54789242       3.53153976       0.00000000 NULL
P       -1.56511909       8.47042907       4.87350743       0.00000000 NULL
P       -0.75730795       4.24655602      10.37425116       0.00000000 NULL
P        1.63653432       6.57247009       2.66809498       0.00000000 NULL
13
Lattice="3.1706154784195237 -0.07531781589014012 0.0875037120437917 -1.3078501097333752 10.599052096242984 0.07016604130591937 -0.9776817186134974 -3.2970186479369805 11.353396334483527" Properties=species:S:1:pos:R:3:initial_magmoms:R:1:castep_labels:S:1 n_minim_iter=16 pbc="T T T"
P        1.35939541       9.27420596       2.12174230       0.00000000 NULL
P        0.64537828       2.89670379       9.56305323       0.00000000 NULL
P       -0.94612206       3.17483204       4.94522500       0.00000000 NULL
P        1.10517038       0.16705778       1.82792891       0.00000000 NULL
P        0.01859934       6.93930809       4.14747640       0.00000000 NULL
P        1.22894773       8.07887106       6.95258784       0.00000000 NULL
P       -0.56303364       1.78987278       3.18382668       0.00000000 NULL
P        0.93090270      -0.99426357       7.14432607       0.00000000 NULL
P        1.02170982       3.24776044       2.35981960       0.00000000 NULL
P       -0.50752514       4.60732513       3.42014109       0.00000000 NULL
P       -1.60101820       8.62209488       4.74164936       0.00000000 NULL
P       -0.85000319       4.30445611      10.02399246       0.00000000 NULL
P        1.64408214       6.61357495       2.59064468       0.00000000 NULL
13
Lattice="3.2764385802275218 -0.03332538305861549 0.09320759444641899 -1.2377453411218504 11.02895333717328 0.13308729554218965 -1.0381404300048958 -3.3743127892245877 11.603692524900682" Properties=species:S:1:pos:R:3:initial_magmoms:R:1:castep_labels:S:1 n_minim_iter=17 pbc="T T T"
P        1.50583099       9.69352668       2.22904363       0.00000000 NULL
P        0.71195924       3.09470190       9.81093825       0.00000000 NULL
P       -0.93926761       3.31924719       5.08798453       0.00000000 NULL
P        1.14799632       0.19454542       1.87190956       0.00000000 NULL
P        0.09560360       7.26617401       4.28910499       0.00000000 NULL
P        1.36071888       8.48070544       7.17652318       0.00000000 NULL
P       -0.56322771       1.88486080       3.27568634       0.00000000 NULL
P        0.96067925      -0.97453408       7.31025937       0.00000000 NULL
P        1.09302993       3.41298250       2.43252375       0.00000000 NULL
P       -0.47669726       4.82425027       3.52233117       0.00000000 NULL
P       -1.56039479       9.00732591       4.89729717       0.00000000 NULL
P       -0.83226023       4.53893695      10.28775165       0.00000000 NULL
P        1.77507520       6.92973760       2.68911325       0.00000000 NULL
13
Lattice="3.175428037240439 -0.03673294215587606 0.09085340163186968 -1.2109219725551814 10.76843919263529 0.11617713387892982 -1.000663569979549 -3.310671795593419 11.405510283205025" Properties=species:S:1:pos:R:3:initial_magmoms:R:1:castep_labels:S:1 n_minim_iter=18 pbc="T T T"
P        1.45037762       9.46055340       2.17678929       0.00000000 NULL
P        0.69016320       3.01078907       9.63669831       0.00000000 NULL
P       -0.91204384       3.23317506       4.99246003       0.00000000 NULL
P        1.11260051       0.18031205       1.83919763       0.00000000 NULL
P        0.08577782       7.08991003       4.20294745       0.00000000 NULL
P        1.31196093       8.27182672       7.03964088       0.00000000 NULL
P       -0.54793155       1.84185546       3.21685503       0.00000000 NULL
P        0.93330392      -0.96924197       7.18242488       0.00000000 NULL
P        1.05658786       3.32564678       2.38740657       0.00000000 NULL
P       -0.46812521       4.70276171       3.45301062       0.00000000 NULL
P       -1.52163896       8.78656041       4.79862247       0.00000000 NULL
P       -0.81117524       4.41115600      10.10079236       0.00000000 NULL
P        1.71462540       6.75839273       2.63453900       0.00000000 NULL
