14
Lattice="3.5911699999999995 5.387682938514743e-17 6.659410501521843e-16 -0.16503636323703455 6.3336601862516675 3.0967035692338592e-15 -0.22797009512497945 -1.5165022677224376 13.528609798136003" Properties=species:S:1:pos:R:3:initial_magmoms:R:1:castep_labels:S:1 n_minim_iter=1 pbc="T T T"
P        0.58274683       4.42284358       2.76854341       0.00000000 NULL
P        2.61541671       0.39431434      10.76006639       0.00000000 NULL
P        2.25034387       4.79519190       0.92176506       0.00000000 NULL
P        0.94781967       0.02196602      12.60684474       0.00000000 NULL
P        0.43965371       5.71056501       0.96090198       0.00000000 NULL
P        2.75850983      -0.89340709      12.56770782       0.00000000 NULL
P        2.04853202       0.27280129       2.05294489       0.00000000 NULL
P        1.14963152       4.54435663      11.47566491       0.00000000 NULL
P        2.10049983       2.89273898      12.48189314       0.00000000 NULL
P        1.09766371       1.92441894       1.04671666       0.00000000 NULL
P        2.95614508       3.80152375      10.87425326       0.00000000 NULL
P        0.24201846       1.01563417       2.65435654       0.00000000 NULL
P        2.20755605       2.38436083       9.41407523       0.00000000 NULL
P        0.99060749       2.43279709       4.11453457       0.00000000 NULL
14
Lattice="3.6126799824459823 0.001980632560501131 1.0493276912279225e-05 -0.16253168528643228 6.355314746812889 0.0076522092007246 -0.23013242858873 -1.5054886192474983 13.583242728473671" Properties=species:S:1:pos:R:3:initial_magmoms:R:1:castep_labels:S:1 n_minim_iter=2 pbc="T T T"
P        0.58877807       4.44153910       2.78552366       0.00000000 NULL
P        2.63123779       0.41026766      10.80538177       0.00000000 NULL
P        2.26646859       4.81355960       0.93175415       0.00000000 NULL
P        0.95354728       0.03824716      12.65915128       0.00000000 NULL
P        0.44509179       5.73148736       0.97154782       0.00000000 NULL
P        2.77492408      -0.87968060      12.61935761       0.00000000 NULL
P        2.06117141       0.27739860       2.06207586       0.00000000 NULL
P        1.15884446       4.57440816      11.52882957       0.00000000 NULL
P        2.11459451       2.91848726      12.53734177       0.00000000 NULL
P        1.10542136       1.93331950       1.05356366       0.00000000 NULL
P        2.97610124       3.82917071      10.92379399       0.00000000 NULL
P        0.24391463       1.02263605       2.66711145       0.00000000 NULL
P        2.22216014       2.40501072       9.45625499       0.00000000 NULL
P        0.99785573       2.44679604       4.13465044       0.00000000 NULL
14
Lattice="4.058515903248627 0.04443576378098065 0.00031892265445689717 -0.10814349554784079 6.791312320252672 0.17216462897971788 -0.27520073205215506 -1.2616175888821917 14.676195764992102" Properties=species:S:1:pos:R:3:initial_magmoms:R:1:castep_labels:S:1 n_minim_iter=3 pbc="T T T"
P        0.71567248       4.82296693       3.13376870       0.00000000 NULL
P        2.95949920       0.75116356      11.71491062       0.00000000 NULL
P        2.60248133       5.18632937       1.14065301       0.00000000 NULL
P        1.07269035       0.38780112      13.70802630       0.00000000 NULL
P        0.55955557       6.15423701       1.19478201       0.00000000 NULL
P        3.11561611      -0.58010651      13.65389731       0.00000000 NULL
P        2.32353285       0.37517295       2.24591047       0.00000000 NULL
P        1.35163883       5.19895755      12.60276884       0.00000000 NULL
P        2.40786421       3.45861800      13.65389915       0.00000000 NULL
P        1.26730747       2.11551250       1.19478017       0.00000000 NULL
P        3.39143458       4.40543763      11.92329576       0.00000000 NULL
P        0.28373710       1.16869286       2.92538355       0.00000000 NULL
P        2.52615539       2.83788586      10.30652633       0.00000000 NULL
P        1.14901629       2.73624464       4.54215299       0.00000000 NULL
14
Lattice="4.144811610325484 0.07703620925329359 0.007354085767533158 -0.05461269252733957 6.816630881648745 0.27432900862987675 -0.2679427947825903 -1.0511956947630723 14.711096548480127" Properties=species:S:1:pos:R:3:initial_magmoms:R:1:castep_labels:S:1 n_minim_iter=4 pbc="T T T"
P        0.77673968       4.88973181       3.21922845       0.00000000 NULL
P        3.04551644       0.95273959      11.77355119       0.00000000 NULL
P        2.70100403       5.23871074       1.22867500       0.00000000 NULL
P        1.12125210       0.60376066      13.76410465       0.00000000 NULL
P        0.62081867       6.19428658       1.29126933       0.00000000 NULL
P        3.20143745      -0.35181518      13.70151032       0.00000000 NULL
P        2.37991814       0.43066554       2.26458074       0.00000000 NULL
P        1.44233799       5.41180586      12.72819890       0.00000000 NULL
P        2.50674477       3.69021394      13.75797528       0.00000000 NULL
P        1.31551136       2.15225746       1.23480436       0.00000000 NULL
P        3.51672832       4.62062751      12.03445241       0.00000000 NULL
P        0.30552781       1.22184389       2.95832723       0.00000000 NULL
P        2.62101513       3.01935821      10.39487855       0.00000000 NULL
P        1.20124099       2.82311319       4.59790109       0.00000000 NULL
14
Lattice="4.1914636225108515 0.11907704078960442 0.016532573436122473 0.017389764184448955 6.785423046980183 0.38856497680175084 -0.2540804885737719 -0.8019474052070815 14.652801229258104" Properties=species:S:1:pos:R:3:initial_magmoms:R:1:castep_labels:S:1 n_minim_iter=5 pbc="T T T"
P        0.84555856       4.92336605       3.29545967       0.00000000 NULL
P        3.10921434       1.17918664      11.76243910       0.00000000 NULL
P        2.78720828       5.25631280       1.32162065       0.00000000 NULL
P        1.16756462       0.84623989      13.73627813       0.00000000 NULL
P        0.69209238       6.18446365       1.39291001       0.00000000 NULL
P        3.26268052      -0.08191097      13.66498877       0.00000000 NULL
P        2.41526838       0.49392646       2.27182759       0.00000000 NULL
P        1.53950452       5.60862622      12.78607119       0.00000000 NULL
P        2.59619046       3.92529875      13.78556774       0.00000000 NULL
P        1.35858244       2.17725393       1.27233104       0.00000000 NULL
P        3.62475067       4.82944332      12.08063309       0.00000000 NULL
P        0.33002223       1.27310936       2.97726569       0.00000000 NULL
P        2.70446852       3.20372140      10.42900445       0.00000000 NULL
P        1.25030438       2.89883128       4.62889433       0.00000000 NULL
14
Lattice="4.201553365261567 0.17156658758257737 0.027846294940129496 0.10950063007702979 6.7190164155613035 0.5013707132605005 -0.23426570753178316 -0.5478949003513554 14.583178400373692" Properties=species:S:1:pos:R:3:initial_magmoms:R:1:castep_labels:S:1 n_minim_iter=6 pbc="T T T"
P        0.92474906       4.93189846       3.37047039       0.00000000 NULL
P        3.15203923       1.41078964      11.74192502       0.00000000 NULL
P        2.86389645       5.25246802       1.41602500       0.00000000 NULL
P        1.21289183       1.09022009      13.69637041       0.00000000 NULL
P        0.77383001       6.14002019       1.49244260       0.00000000 NULL
P        3.30295828       0.20266791      13.61995281       0.00000000 NULL
P        2.43232021       0.56200178       2.28078611       0.00000000 NULL
P        1.64446808       5.78068633      12.83160930       0.00000000 NULL
P        2.67739922       4.14486685      13.80362735       0.00000000 NULL
P        1.39938907       2.19782126       1.30876806       0.00000000 NULL
P        3.71862744       5.02068072      12.11371799       0.00000000 NULL
P        0.35816085       1.32200738       2.99867742       0.00000000 NULL
P        2.78031440       3.37998563      10.46170067       0.00000000 NULL
P        1.29647389       2.96270248       4.65069473       0.00000000 NULL
14
Lattice="4.202607315935201 0.19034514913083628 0.0378244219899497 0.14257149206548705 6.741140132869037 0.5142599098937485 -0.20467307143674712 -0.5260801938754082 14.69260885153485" Properties=species:S:1:pos:R:3:initial_magmoms:R:1:castep_labels:S:1 n_minim_iter=7 pbc="T T T"
P        0.95940834       4.95220956       3.40902588       0.00000000 NULL
P        3.18109740       1.45319552      11.83566731       0.00000000 NULL
P        2.89039159       5.27856392       1.44415579       0.00000000 NULL
P        1.25011414       1.12684117      13.80053739       0.00000000 NULL
P        0.80079491       6.15637984       1.51206272       0.00000000 NULL
P        3.33971083       0.24902525      13.73263047       0.00000000 NULL
P        2.44265697       0.57911080       2.30956938       0.00000000 NULL
P        1.69784877       5.82629428      12.93512381       0.00000000 NULL
P        2.72326163       4.18517605      13.92113719       0.00000000 NULL
P        1.41724410       2.22022903       1.32355599       0.00000000 NULL
P        3.76658158       5.06588731      12.21032609       0.00000000 NULL
P        0.37392415       1.33951778       3.03436710       0.00000000 NULL
P        2.82438487       3.42035868      10.56346516       0.00000000 NULL
P        1.31612087       2.98504641       4.68122802       0.00000000 NULL
14
Lattice="4.1810880267921675 0.19552837273806653 0.0434376857713617 0.15270196269683203 6.7145753881090045 0.5243922995897489 -0.18434960041443038 -0.497912072388647 14.635054306620058" Properties=species:S:1:pos:R:3:initial_magmoms:R:1:castep_labels:S:1 n_minim_iter=8 pbc="T T T"
P        0.96859275       4.93685610       3.40819342       0.00000000 NULL
P        3.18084764       1.47533559      11.79469088       0.00000000 NULL
P        2.88432972       5.26075436       1.45317679       0.00000000 NULL
P        1.26511067       1.15143733      13.74970750       0.00000000 NULL
P        0.80514825       6.13069213       1.51776611       0.00000000 NULL
P        3.34429214       0.28149956      13.68511818       0.00000000 NULL
P        2.43475655       0.58484097       2.30729432       0.00000000 NULL
P        1.71468384       5.82735072      12.89558997       0.00000000 NULL
P        2.73242124       4.19368819      13.87932590       0.00000000 NULL
P        1.41701915       2.21850350       1.32355839       0.00000000 NULL
P        3.76898737       5.06810688      12.17216076       0.00000000 NULL
P        0.38045302       1.34408481       3.03072354       0.00000000 NULL
P        2.83200750       3.42944051      10.53934521       0.00000000 NULL
P        1.31743289       2.98275118       4.66353908       0.00000000 NULL
14
Lattice="4.179613608359735 0.19829683092629843 0.047750860977311384 0.15765238444241436 6.721278790649862 0.5311712331244779 -0.16917654691319275 -0.4848202145215385 14.647877135980888" Properties=species:S:1:pos:R:3:initial_magmoms:R:1:castep_labels:S:1 n_minim_iter=9 pbc="T T T"
P        0.97676672       4.94311392       3.41882026       0.00000000 NULL
P        3.19132272       1.49164148      11.80797897       0.00000000 NULL
P        2.88751692       5.26603824       1.46342180       0.00000000 NULL
P        1.28057253       1.16871716      13.76337743       0.00000000 NULL
P        0.80788161       6.13483592       1.52498515       0.00000000 NULL
P        3.36020783       0.29991949      13.70181409       0.00000000 NULL
P        2.43762139       0.58923924       2.31451692       0.00000000 NULL
P        1.73046806       5.84551617      12.91228231       0.00000000 NULL
P        2.74712785       4.20914894      13.89932114       0.00000000 NULL
P        1.42096160       2.22560647       1.32747809       0.00000000 NULL
P        3.78212256       5.08301639      12.18718498       0.00000000 NULL
P        0.38596688       1.35173902       3.03961425       0.00000000 NULL
P        2.84646386       3.44433516      10.56025302       0.00000000 NULL
P        1.32162559       2.99042025       4.66654621       0.00000000 NULL
14
Lattice="4.169824722656093 0.2017033836928852 0.054545687197362365 0.16411029919631606 6.720610906932171 0.5430664845200206 -0.14439629958806066 -0.45883895133841984 14.640872233729526" Properties=species:S:1:pos:R:3:initial_magmoms:R:1:castep_labels:S:1 n_minim_iter=10 pbc="T T T"
P        0.98731755       4.94553831       3.43086737       0.00000000 NULL
P        3.20222117       1.51793703      11.80761704       0.00000000 NULL
P        2.88653094       5.26537820       1.47842652       0.00000000 NULL
P        1.30300778       1.19809714      13.76005788       0.00000000 NULL
P        0.80986557       6.13142088       1.53563752       0.00000000 NULL
P        3.37967315       0.33205446      13.70284689       0.00000000 NULL
P        2.43750755       0.59555626       2.32168883       0.00000000 NULL
P        1.75203117       5.86791908      12.91679557       0.00000000 NULL
P        2.76521186       4.23050492      13.90654156       0.00000000 NULL
P        1.42432686       2.23297042       1.33194284       0.00000000 NULL
P        3.79544968       5.10091705      12.19007123       0.00000000 NULL
P        0.39408904       1.36255829       3.04841317       0.00000000 NULL
P        2.86405199       3.46485798      10.57498268       0.00000000 NULL
P        1.32548673       2.99861736       4.66350172       0.00000000 NULL
14
Lattice="4.10327788665635 0.21926943653759845 0.10785372198031626 0.19814936093120436 6.748505577677838 0.6432060641795659 0.05323158526374009 -0.24769676387602377 14.637560825650565" Properties=species:S:1:pos:R:3:initial_magmoms:R:1:castep_labels:S:1 n_minim_iter=11 pbc="T T T"
P        1.06153427       4.98928163       3.54177469       0.00000000 NULL
P        3.29312456       1.73079662      11.84684592       0.00000000 NULL
P        2.87272067       5.27759107       1.60314735       0.00000000 NULL
P        1.48193816       1.44248718      13.78547326       0.00000000 NULL
P        0.81143409       6.13481486       1.62791117       0.00000000 NULL
P        3.54322474       0.58526339      13.76070944       0.00000000 NULL
P        2.44094496       0.64344792       2.38620875       0.00000000 NULL
P        1.91371388       6.07663033      13.00241186       0.00000000 NULL
P        2.90570729       4.42095181      14.01547494       0.00000000 NULL
P        1.44895154       2.29912644       1.37314567       0.00000000 NULL
P        3.89775977       5.26247250      12.25740389       0.00000000 NULL
P        0.45689906       1.45760575       3.13121672       0.00000000 NULL
P        3.00307913       3.64414417      10.73107865       0.00000000 NULL
P        1.35157971       3.07593408       4.65754196       0.00000000 NULL
14
Lattice="3.943306977430168 0.17814280415419623 0.23023361150011534 0.13296695602167657 6.758561171891152 0.9262771181584509 0.5417818313170021 0.36960769877914956 14.596178268056025" Properties=species:S:1:pos:R:3:initial_magmoms:R:1:castep_labels:S:1 n_minim_iter=12 pbc="T T T"
P        1.12449159       5.09217693       3.80813275       0.00000000 NULL
P        3.49356417       2.21413475      11.94455625       0.00000000 NULL
P        2.72855849       5.22053647       1.88956509       0.00000000 NULL
P        1.88949727       2.08577520      13.86312391       0.00000000 NULL
P        0.71042658       6.14513009       1.89494948       0.00000000 NULL
P        3.90762919       1.16118158      13.85773951       0.00000000 NULL
P        2.41231953       0.71816743       2.49885952       0.00000000 NULL
P        2.20573624       6.58814425      13.25382948       0.00000000 NULL
P        3.17507687       4.93556713      14.26892118       0.00000000 NULL
P        1.44297889       2.37074454       1.48376781       0.00000000 NULL
P        4.05720540       5.64445138      12.47021773       0.00000000 NULL
P        0.56085036       1.66186029       3.28247127       0.00000000 NULL
P        3.23808044       4.07051354      11.02988652       0.00000000 NULL
P        1.37997532       3.23579814       4.72280248       0.00000000 NULL
14
Lattice="4.0006247775294455 0.18658736088044128 0.22899706411483775 0.1452263120116258 6.98816490317308 0.8940622704960877 0.5299189284640148 0.2450716111777363 15.14527065798998" Properties=species:S:1:pos:R:3:initial_magmoms:R:1:castep_labels:S:1 n_minim_iter=13 pbc="T T T"
P        1.14842477       5.23962666       3.90215923       0.00000000 NULL
P        3.52734525       2.18019721      12.36617076       0.00000000 NULL
P        2.77184932       5.38227452       1.90142210       0.00000000 NULL
P        1.90392070       2.03754936      14.36690789       0.00000000 NULL
P        0.72617592       6.34516042       1.90493179       0.00000000 NULL
P        3.94959409       1.07466346      14.36339821       0.00000000 NULL
P        2.44515701       0.72228587       2.58352605       0.00000000 NULL
P        2.23061301       6.69753800      13.68480394       0.00000000 NULL
P        3.20683881       4.97475194      14.75898713       0.00000000 NULL
P        1.46893121       2.44507194       1.50934286       0.00000000 NULL
P        4.11055327       5.72726247      12.87306789       0.00000000 NULL
P        0.56521675       1.69256140       3.39526211       0.00000000 NULL
P        3.27768895       4.11663805      11.40160269       0.00000000 NULL
P        1.39808107       3.30318583       4.86672730       0.00000000 NULL
14
Lattice="3.9324226860153413 0.18482981849312444 0.22454540361432018 0.14526088261242012 6.918654673458936 0.9119740793951365 0.5182203946827936 0.2996681193046549 14.970720668624804" Properties=species:S:1:pos:R:3:initial_magmoms:R:1:castep_labels:S:1 n_minim_iter=14 pbc="T T T"
P        1.13225134       5.19933552       3.87745020       0.00000000 NULL
P        3.46365262       2.20381709      12.22978995       0.00000000 NULL
P        2.72439095       5.32936517       1.89776865       0.00000000 NULL
P        1.87151301       2.07378744      14.20947150       0.00000000 NULL
P        0.71522730       6.28606498       1.90962584       0.00000000 NULL
P        3.88067666       1.11708763      14.19761432       0.00000000 NULL
P        2.40129498       0.72509580       2.55484271       0.00000000 NULL
P        2.19460898       6.67805681      13.55239744       0.00000000 NULL
P        3.15006911       4.97895116      14.60708465       0.00000000 NULL
P        1.44583485       2.42420145       1.50015551       0.00000000 NULL
P        4.03939837       5.71303328      12.74331227       0.00000000 NULL
P        0.55650560       1.69011933       3.36392788       0.00000000 NULL
P        3.22218671       4.11703363      11.28654281       0.00000000 NULL
P        1.37371726       3.28611898       4.82069734       0.00000000 NULL
14
Lattice="3.9127242344404976 0.18417519909394692 0.22068379330773147 0.14501161120048237 6.927210723794668 0.9286647955368985 0.5051998945818151 0.3329403316499303 14.971543800632498" Properties=species:S:1:pos:R:3:initial_magmoms:R:1:castep_labels:S:1 n_minim_iter=15 pbc="T T T"
P        1.12711892       5.21279011       3.88945452       0.00000000 NULL
P        3.43581682       2.23153615      12.23143787       0.00000000 NULL
P        2.70860954       5.33292119       1.90579241       0.00000000 NULL
P        1.85432620       2.11140507      14.21509998       0.00000000 NULL
P        0.71012387       6.29659812       1.92542879       0.00000000 NULL
P        3.85281187       1.14772813      14.19546360       0.00000000 NULL
P        2.38655287       0.73125358       2.55442802       0.00000000 NULL
P        2.17638287       6.71307268      13.56646437       0.00000000 NULL
P        3.12349111       5.01482265      14.61771388       0.00000000 NULL
P        1.43944463       2.42950360       1.50317851       0.00000000 NULL
P        4.01130235       5.74282799      12.75109607       0.00000000 NULL
P        0.55163339       1.70149826       3.36979632       0.00000000 NULL
P        3.19972875       4.14592886      11.29503808       0.00000000 NULL
P        1.36320699       3.29839739       4.82585431       0.00000000 NULL
14
Lattice="3.8999777848739208 0.18315651385103981 0.2176080065047959 0.14380075833507383 6.945316061172658 0.943072977303883 0.4948521606460791 0.35915490029087044 14.993712009996091" Properties=species:S:1:pos:R:3:initial_magmoms:R:1:castep_labels:S:1 n_minim_iter=16 pbc="T T T"
P        1.12334587       5.23169449       3.90451124       0.00000000 NULL
P        3.41528484       2.25593299      12.24988175       0.00000000 NULL
P        2.69702342       5.34289690       1.91414114       0.00000000 NULL
P        1.84160728       2.14473058      14.24025186       0.00000000 NULL
P        0.70525781       6.31527926       1.94069889       0.00000000 NULL
P        3.83337289       1.17234821      14.21369411       0.00000000 NULL
P        2.37644958       0.73681366       2.55774235       0.00000000 NULL
P        2.16218112       6.75081382      13.59665064       0.00000000 NULL
P        3.10342985       5.05014265      14.64710645       0.00000000 NULL
P        1.43520085       2.43748483       1.50728654       0.00000000 NULL
P        3.99090270       5.77412795      12.77477707       0.00000000 NULL
P        0.54772800       1.71349952       3.37961593       0.00000000 NULL
P        3.18348324       4.17475347      11.31783481       0.00000000 NULL
P        1.35514747       3.31287401       4.83655818       0.00000000 NULL
14
Lattice="3.8657554683292434 0.17964119851955632 0.21066582094108585 0.13917360726924896 6.989893784990286 0.979101570328497 0.4723565753054667 0.42501836747326643 15.046152792253169" Properties=species:S:1:pos:R:3:initial_magmoms:R:1:castep_labels:S:1 n_minim_iter=17 pbc="T T T"
P        1.11304762       5.27813997       3.94174794       0.00000000 NULL
P        3.36423803       2.31641338      12.29417225       0.00000000 NULL
P        2.66554427       5.36592770       1.93488763       0.00000000 NULL
P        1.81174138       2.22862565      14.30103255       0.00000000 NULL
P        0.69135522       6.36143690       1.97892571       0.00000000 NULL
P        3.78593043       1.23311645      14.25699448       0.00000000 NULL
P        2.35022538       0.75029502       2.56620693       0.00000000 NULL
P        2.12706027       6.84425833      13.66971325       0.00000000 NULL
P        3.05382323       5.13769120      14.71841920       0.00000000 NULL
P        1.42346242       2.45686215       1.51750099       0.00000000 NULL
P        3.93922517       5.85084336      12.83216922       0.00000000 NULL
P        0.53806048       1.74370999       3.40375097       0.00000000 NULL
P        3.14276356       4.24609504      11.37342015       0.00000000 NULL
P        1.33452209       3.34845831       4.86250004       0.00000000 NULL
14
Lattice="3.8022547675460157 0.17090450886819647 0.20236023636872807 0.12668316580193184 7.076688486207635 1.044613203485437 0.44878833922694183 0.5440040361063194 15.15809184120972" Properties=species:S:1:pos:R:3:initial_magmoms:R:1:castep_labels:S:1 n_minim_iter=18 pbc="T T T"
P        1.09512921       5.36527202       4.01414516       0.00000000 NULL
P        3.28259706       2.42632501      12.39092012       0.00000000 NULL
P        2.60575302       5.40744787       1.97510557       0.00000000 NULL
P        1.77197326       2.38414916      14.42995972       0.00000000 NULL
P        0.66260562       6.45095704       2.05068974       0.00000000 NULL
P        3.71512065       1.34064000      14.35437554       0.00000000 NULL
P        2.30448868       0.77451853       2.58776301       0.00000000 NULL
P        2.07323759       7.01707850      13.81730227       0.00000000 NULL
P        2.97632535       5.29838941      14.86639139       0.00000000 NULL
P        1.40140092       2.49320762       1.53867389       0.00000000 NULL
P        3.85477000       5.99056185      12.95314388       0.00000000 NULL
P        0.52295627       1.80103518       3.45192140       0.00000000 NULL
P        3.07795917       4.37703835      11.48984424       0.00000000 NULL
P        1.29976710       3.41455869       4.91522105       0.00000000 NULL
14
Lattice="3.7318201891624123 0.16504934866329954 0.20165844435897068 0.11959346288858508 7.164438009045341 1.126532336658673 0.4530883503663001 0.6983390504629479 15.316891119536544" Properties=species:S:1:pos:R:3:initial_magmoms:R:1:castep_labels:S:1 n_minim_iter=19 pbc="T T T"
P        1.08612717       5.45913580       4.11031986       0.00000000 NULL
P        3.21837483       2.56869060      12.53476204       0.00000000 NULL
P        2.54727156       5.44932073       2.03375943       0.00000000 NULL
P        1.75723044       2.57850568      14.61132247       0.00000000 NULL
P        0.63850617       6.54526942       2.14240443       0.00000000 NULL
P        3.66599583       1.48255698      14.50267747       0.00000000 NULL
P        2.26008747       0.80827734       2.62489121       0.00000000 NULL
P        2.04441453       7.21954907      14.02019069       0.00000000 NULL
P        2.92377051       5.49384499      15.07250047       0.00000000 NULL
P        1.38073149       2.53398142       1.57258143       0.00000000 NULL
P        3.79036461       6.15912337      13.13013409       0.00000000 NULL
P        0.51413739       1.86870303       3.51494782       0.00000000 NULL
P        3.03110626       4.53590688      11.65499430       0.00000000 NULL
P        1.27339574       3.49191953       4.99008760       0.00000000 NULL
14
Lattice="3.6208351141117756 0.1540353890577282 0.20415717598201802 0.10526885439414731 7.22702645068317 1.1581969272528732 0.4741979992978973 0.7520539339481905 15.43309322109479" Properties=species:S:1:pos:R:3:initial_magmoms:R:1:castep_labels:S:1 n_minim_iter=20 pbc="T T T"
P        1.07352124       5.50699207       4.16238779       0.00000000 NULL
P        3.12678073       2.62612370      12.63305954       0.00000000 NULL
P        2.45377164       5.43819421       2.04502671       0.00000000 NULL
P        1.74653032       2.69492156      14.75042061       0.00000000 NULL
P        0.59660618       6.61257440       2.19047144       0.00000000 NULL
P        3.60369579       1.52054137      14.60497588       0.00000000 NULL
P        2.19396565       0.82631529       2.65900816       0.00000000 NULL
P        2.00633631       7.30680048      14.13643917       0.00000000 NULL
P        2.85293247       5.57537937      15.21075317       0.00000000 NULL
P        1.34736950       2.55773641       1.58469416       0.00000000 NULL
P        3.69873428       6.21204831      13.23165795       0.00000000 NULL
P        0.50156769       1.92106746       3.56378937       0.00000000 NULL
P        2.96606735       4.61032788      11.77204161       0.00000000 NULL
P        1.23423462       3.52278790       5.02340571       0.00000000 NULL
14
Lattice="3.670599935830135 0.16017519247160886 0.2002759097387281 0.11381047822161494 7.337734812401839 1.2230222193661817 0.4538246798867636 0.8631740456077299 15.742436393154529" Properties=species:S:1:pos:R:3:initial_magmoms:R:1:castep_labels:S:1 n_minim_iter=21 pbc="T T T"
P        1.09879716       5.60698163       4.27542607       0.00000000 NULL
P        3.13943794       2.75410242      12.89030845       0.00000000 NULL
P        2.48487729       5.50081556       2.10231479       0.00000000 NULL
P        1.75335781       2.86026849      15.06341973       0.00000000 NULL
P        0.59888068       6.72579671       2.27580317       0.00000000 NULL
P        3.63935442       1.63528734      14.88993136       0.00000000 NULL
P        2.22100191       0.86229980       2.71690835       0.00000000 NULL
P        2.01723318       7.49878425      14.44882617       0.00000000 NULL
P        2.86678034       5.75249661      15.53909198       0.00000000 NULL
P        1.37145475       2.60858744       1.62664254       0.00000000 NULL
P        3.73814869       6.37320439      13.51341479       0.00000000 NULL
P        0.50008640       1.98787966       3.65231974       0.00000000 NULL
P        2.99396599       4.75773048      12.03044004       0.00000000 NULL
P        1.24426910       3.60335357       5.13529448       0.00000000 NULL
14
Lattice="3.609195632323673 0.16489209531895996 0.20134278967627142 0.12495147202153961 7.229325135862622 1.1935182108744187 0.4597499224743589 0.8258643977847165 15.532786529446515" Properties=species:S:1:pos:R:3:initial_magmoms:R:1:castep_labels:S:1 n_minim_iter=22 pbc="T T T"
P        1.09480834       5.51878182       4.20905077       0.00000000 NULL
P        3.09908868       2.70129981      12.71859676       0.00000000 NULL
P        2.45225441       5.41939475       2.06655043       0.00000000 NULL
P        1.74164262       2.80068688      14.86109710       0.00000000 NULL
P        0.60014831       6.62429985       2.23445194       0.00000000 NULL
P        3.59374871       1.59578178      14.69319559       0.00000000 NULL
P        2.18643916       0.85195824       2.68296514       0.00000000 NULL
P        2.00745787       7.36812339      14.24468239       0.00000000 NULL
P        2.83920845       5.64974880      15.32551584       0.00000000 NULL
P        1.35468857       2.57033283       1.60213169       0.00000000 NULL
P        3.69600915       6.26393202      13.32691213       0.00000000 NULL
P        0.49788788       1.95614961       3.60073540       0.00000000 NULL
P        2.96132009       4.67569379      11.86780626       0.00000000 NULL
P        1.23257694       3.54438784       5.05984127       0.00000000 NULL
14
Lattice="3.606327551126626 0.16400474254326772 0.2016666202657647 0.12351827524823751 7.238883466885636 1.1871470758689735 0.4615266378417417 0.8100650213512286 15.567401458568423" Properties=species:S:1:pos:R:3:initial_magmoms:R:1:castep_labels:S:1 n_minim_iter=23 pbc="T T T"
P        1.09514896       5.52139800       4.21187935       0.00000000 NULL
P        3.09622350       2.69155524      12.74433581       0.00000000 NULL
P        2.44866344       5.42091870       2.06370886       0.00000000 NULL
P        1.74270902       2.79203453      14.89250630       0.00000000 NULL
P        0.59678137       6.63158213       2.23159958       0.00000000 NULL
P        3.59459110       1.58137110      14.72461557       0.00000000 NULL
P        2.18508657       0.85041516       2.68910102       0.00000000 NULL
P        2.00628590       7.36253807      14.26711414       0.00000000 NULL
P        2.83746765       5.64016891      15.35369048       0.00000000 NULL
P        1.35390482       2.57278432       1.60252467       0.00000000 NULL
P        3.69441945       6.25564873      13.34890890       0.00000000 NULL
P        0.49695302       1.95730450       3.60730625       0.00000000 NULL
P        2.96008477       4.66979311      11.88995728       0.00000000 NULL
P        1.23128769       3.54316012       5.06625788       0.00000000 NULL
14
Lattice="3.5997808175410815 0.16384360981407292 0.20163509799599555 0.12353495202779556 7.238826607333999 1.1838460920405607 0.4618915231409103 0.803036687705154 15.578515952667129" Properties=species:S:1:pos:R:3:initial_magmoms:R:1:castep_labels:S:1 n_minim_iter=24 pbc="T T T"
P        1.09561919       5.51867261       4.21178109       0.00000000 NULL
P        3.08958810       2.68703429      12.75221605       0.00000000 NULL
P        2.44344031       5.41587658       2.06112382       0.00000000 NULL
P        1.74176698       2.78983033      14.90287332       0.00000000 NULL
P        0.59388844       6.63081660       2.22985207       0.00000000 NULL
P        3.59131886       1.57489031      14.73414507       0.00000000 NULL
P        2.18143218       0.85013307       2.69166483       0.00000000 NULL
P        2.00377512       7.35557383      14.27233232       0.00000000 NULL
P        2.83286988       5.63288577      15.36174438       0.00000000 NULL
P        1.35233741       2.57282114       1.60225277       0.00000000 NULL
P        3.68959435       6.24723919      13.35439618       0.00000000 NULL
P        0.49561295       1.95846771       3.60960097       0.00000000 NULL
P        2.95607374       4.66536976      11.89698728       0.00000000 NULL
P        1.22913355       3.54033715       5.06700987       0.00000000 NULL
14
Lattice="3.580109664482614 0.16436639805510928 0.2009284421351369 0.12536099162757502 7.244422218682986 1.181567316093259 0.4602573909995131 0.7967211607619592 15.621433498064556" Properties=species:S:1:pos:R:3:initial_magmoms:R:1:castep_labels:S:1 n_minim_iter=25 pbc="T T T"
P        1.09946179       5.51697414       4.21881510       0.00000000 NULL
P        3.06626626       2.68853564      12.78511416       0.00000000 NULL
P        2.42792002       5.40263275       2.05844344       0.00000000 NULL
P        1.73780803       2.80287703      14.94548582       0.00000000 NULL
P        0.58474329       6.63478174       2.23244614       0.00000000 NULL
P        3.58098476       1.57072804      14.77148312       0.00000000 NULL
P        2.17030756       0.85352224       2.70198765       0.00000000 NULL
P        1.99542049       7.35198754      14.30194161       0.00000000 NULL
P        2.81708273       5.62866838      15.39916355       0.00000000 NULL
P        1.34864531       2.57684140       1.60476571       0.00000000 NULL
P        3.67508510       6.23647136      13.38314519       0.00000000 NULL
P        0.49064295       1.96903841       3.62078406       0.00000000 NULL
P        2.94326373       4.66692648      11.92921769       0.00000000 NULL
P        1.22246432       3.53858330       5.07471157       0.00000000 NULL
