32
Lattice="5.163149277721696 0.0 0.0 0.0 5.16481751308439 0.0 0.0 0.0 38.88720388215105" Properties=species:S:1:pos:R:3:initial_magmoms:R:1:castep_labels:S:1:forces:R:3 n_minim_iter=1 energy=-175.497642415202 stress="-4.3818945672125554e-05 -0.0 -0.0 -0.0 8.606604096032583e-05 0.0 -0.0 0.0 -8.888187109594657e-05" free_energy=-175.497642415202 pbc="T T T"
P        1.44343327       3.71955973       7.89131695       0.00000000 NULL      -0.00451900       0.00299300      -0.00129200
P        3.71971600       1.44525779       7.89131695       0.00000000 NULL       0.00451900      -0.00299300      -0.00129200
P        1.13814136       1.13715097      30.99588693       0.00000000 NULL       0.00452000       0.00299000       0.00129200
P        4.02500791       4.02766654      30.99588693       0.00000000 NULL      -0.00452000      -0.00299000       0.00129200
P        1.13730519       4.02539244      31.00526487       0.00000000 NULL       0.01066600      -0.00204000       0.00973300
P        4.02584409       1.13942507      31.00526487       0.00000000 NULL      -0.01066600       0.00204000       0.00973300
P        1.44426945       1.44298369       7.88193901       0.00000000 NULL      -0.01066400      -0.00204300      -0.00973300
P        3.71887982       3.72183383       7.88193901       0.00000000 NULL       0.01066400       0.00204300      -0.00973300
P        1.13880563       1.13988615      20.53641464       0.00000000 NULL      -0.00708700       0.00864200       0.00025700
P        4.02434364       4.02493137      20.53641464       0.00000000 NULL       0.00708700      -0.00864200       0.00025700
P        1.44276901       3.72229490      18.35078925       0.00000000 NULL       0.00708800       0.00864500      -0.00025700
P        3.72038027       1.44252261      18.35078925       0.00000000 NULL      -0.00708800      -0.00864500      -0.00025700
P        4.02189445       1.13858303      20.55543549       0.00000000 NULL       0.00220000       0.00499500       0.00248300
P        1.14125483       4.02623449      20.55543549       0.00000000 NULL      -0.00220000      -0.00499500       0.00248300
P        3.72282947       3.72099178      18.33176839       0.00000000 NULL      -0.00220200       0.00499800      -0.00248300
P        1.44031981       1.44382573      18.33176839       0.00000000 NULL       0.00220200      -0.00499700      -0.00248300
P        0.80386259       4.40772858      15.03782179       0.00000000 NULL      -0.01344900       0.01023100      -0.00467100
P        4.35928669       0.75708893      15.03782179       0.00000000 NULL       0.01344900      -0.01023100      -0.00467100
P        1.77771205       1.82531982      23.84938209       0.00000000 NULL       0.01345000       0.01022700       0.00467000
P        3.38543723       3.33949769      23.84938209       0.00000000 NULL      -0.01345000      -0.01022700       0.00467000
P        4.01853383       1.14614301      10.09884034       0.00000000 NULL      -0.00601100      -0.00077000       0.00925000
P        1.14461545       4.01867451      10.09884034       0.00000000 NULL       0.00601100       0.00077000       0.00925000
P        3.72619009       3.72855176      28.78836354       0.00000000 NULL       0.00600900      -0.00076700      -0.00925000
P        1.43695919       1.43626575      28.78836354       0.00000000 NULL      -0.00600900       0.00076700      -0.00925000
P        3.33955418       1.77841383      25.40497257       0.00000000 NULL       0.00093400       0.01273600       0.00317600
P        1.82359510       3.38640368      25.40497257       0.00000000 NULL      -0.00093400      -0.01273600       0.00317600
P        4.40516974       4.36082259      13.48223131       0.00000000 NULL      -0.00093500       0.01274000      -0.00317500
P        0.75797954       0.80399492      13.48223131       0.00000000 NULL       0.00093500      -0.01274000      -0.00317500
P        3.72194404       1.44281858      28.80475074       0.00000000 NULL       0.00103200       0.00111600      -0.00646600
P        1.44120524       3.72199893      28.80475074       0.00000000 NULL      -0.00103200      -0.00111600      -0.00646600
P        4.02277988       4.02522734      10.08245314       0.00000000 NULL      -0.00103300       0.00111900       0.00646600
P        1.14036940       1.13959017      10.08245314       0.00000000 NULL       0.00103300      -0.00111900       0.00646600
32
Lattice="5.163506001436131 0.0 0.0 0.0 5.164116707240068 0.0 0.0 0.0 38.89265380946605" Properties=species:S:1:pos:R:3:initial_magmoms:R:1:castep_labels:S:1:forces:R:3 n_minim_iter=2 energy=-175.497661032188 stress="2.9110842444693633e-05 0.0 -0.0 0.0 -1.7520503717127635e-05 0.0 -0.0 0.0 -9.102562195359653e-06" free_energy=-175.497661032188 pbc="T T T"
P        1.44352613       3.71905957       7.89242093       0.00000000 NULL      -0.00410900       0.00425000       0.00115700
P        3.71997987       1.44505713       7.89242093       0.00000000 NULL       0.00410900      -0.00425000       0.00115700
P        1.13822687       1.13700122      31.00023288       0.00000000 NULL       0.00410900       0.00424800      -0.00115700
P        4.02527913       4.02711549      31.00023288       0.00000000 NULL      -0.00410900      -0.00424800      -0.00115700
P        1.13739998       4.02484314      31.00962496       0.00000000 NULL       0.01025000      -0.00331800       0.00709700
P        4.02610602       1.13927357      31.00962496       0.00000000 NULL      -0.01025000       0.00331800       0.00709700
P        1.44435302       1.44278479       7.88302884       0.00000000 NULL      -0.01025100      -0.00332000      -0.00709700
P        3.71915298       3.72133192       7.88302884       0.00000000 NULL       0.01025100       0.00332000      -0.00709700
P        1.13887354       1.13974462      20.53929314       0.00000000 NULL      -0.00725500       0.00990400      -0.00197700
P        4.02463246       4.02437209      20.53929314       0.00000000 NULL       0.00725500      -0.00990400      -0.00197700
P        1.44287946       3.72180297      18.35336066       0.00000000 NULL       0.00725500       0.00990500       0.00197700
P        3.72062654       1.44231374      18.35336066       0.00000000 NULL      -0.00725500      -0.00990500       0.00197700
P        4.02217567       1.13843613      20.55832005       0.00000000 NULL       0.00241900       0.00623700       0.00002800
P        1.14133033       4.02568058      20.55832005       0.00000000 NULL      -0.00241800      -0.00623700       0.00002800
P        3.72308334       3.72049448      18.33433376       0.00000000 NULL      -0.00241800       0.00623900      -0.00002800
P        1.44042267       1.44362222      18.33433376       0.00000000 NULL       0.00241800      -0.00623900      -0.00002800
P        0.80389768       4.40714605      15.03992220       0.00000000 NULL      -0.01427200       0.00864800      -0.00640000
P        4.35960832       0.75697065      15.03992220       0.00000000 NULL       0.01427200      -0.00864800      -0.00640000
P        1.77785532       1.82508770      23.85273161       0.00000000 NULL       0.01427100       0.00864500       0.00639900
P        3.38565068       3.33902901      23.85273161       0.00000000 NULL      -0.01427100      -0.00864500       0.00639900
P        4.01880233       1.14598632      10.10026973       0.00000000 NULL      -0.00564000       0.00049000       0.00681900
P        1.14470367       4.01813039      10.10026973       0.00000000 NULL       0.00564000      -0.00049000       0.00681900
P        3.72645667       3.72804467      28.79238408       0.00000000 NULL       0.00564000       0.00049200      -0.00681900
P        1.43704933       1.43607203      28.79238408       0.00000000 NULL      -0.00564000      -0.00049200      -0.00682000
P        3.33978633       1.77819189      25.40853783       0.00000000 NULL       0.00003000       0.01120700       0.00155900
P        1.82371967       3.38592482      25.40853783       0.00000000 NULL      -0.00003000      -0.01120700       0.00155900
P        4.40547267       4.36025024      13.48411598       0.00000000 NULL      -0.00002800       0.01121100      -0.00155800
P        0.75803333       0.80386646      13.48411598       0.00000000 NULL       0.00002800      -0.01121100      -0.00155800
P        3.72220276       1.44262451      28.80877781       0.00000000 NULL       0.00066600      -0.00017000      -0.00405600
P        1.44130324       3.72149220      28.80877781       0.00000000 NULL      -0.00066600       0.00017000      -0.00405600
P        4.02305624       4.02468286      10.08387600       0.00000000 NULL      -0.00066600      -0.00016800       0.00405600
P        1.14044976       1.13943384      10.08387600       0.00000000 NULL       0.00066600       0.00016800       0.00405600
32
Lattice="5.162792494543597 0.0 0.0 0.0 5.164237488794285 0.0 0.0 0.0 38.898330558884915" Properties=species:S:1:pos:R:3:initial_magmoms:R:1:castep_labels:S:1:forces:R:3 n_minim_iter=3 energy=-175.497677550037 stress="-8.249906280685391e-05 -0.0 -0.0 -0.0 1.058718688194549e-05 -0.0 -0.0 -0.0 6.608795891516793e-05" free_energy=-175.497677550037 pbc="T T T"
P        1.44329751       3.71917506       7.89357864       0.00000000 NULL      -0.00500100       0.00405300       0.00366100
P        3.71949498       1.44506242       7.89357864       0.00000000 NULL       0.00500100      -0.00405300       0.00366100
P        1.13809873       1.13705632      31.00475192       0.00000000 NULL       0.00500500       0.00405700      -0.00366100
P        4.02469376       4.02718117      31.00475192       0.00000000 NULL      -0.00500500      -0.00405700      -0.00366100
P        1.13731493       4.02491529      31.01420333       0.00000000 NULL       0.01105500      -0.00316000       0.00394800
P        4.02547756       1.13932220      31.01420333       0.00000000 NULL      -0.01105500       0.00316000       0.00394800
P        1.44408132       1.44279655       7.88412722       0.00000000 NULL      -0.01105100      -0.00315600      -0.00394800
P        3.71871118       3.72144094       7.88412722       0.00000000 NULL       0.01105100       0.00315600      -0.00394800
P        1.13866556       1.13983934      20.54227937       0.00000000 NULL      -0.00555300       0.00958000      -0.00403900
P        4.02412693       4.02439815      20.54227937       0.00000000 NULL       0.00555300      -0.00958000      -0.00403900
P        1.44273068       3.72195809      18.35605119       0.00000000 NULL       0.00555600       0.00957700       0.00403900
P        3.72006181       1.44227940      18.35605119       0.00000000 NULL      -0.00555600      -0.00957700       0.00403900
P        4.02163658       1.13850519      20.56132330       0.00000000 NULL       0.00078000       0.00587600      -0.00231400
P        1.14115591       4.02573229      20.56132330       0.00000000 NULL      -0.00078000      -0.00587600      -0.00231400
P        3.72255216       3.72062394      18.33700726       0.00000000 NULL      -0.00078400       0.00587200       0.00231400
P        1.44024033       1.44361355      18.33700726       0.00000000 NULL       0.00078400      -0.00587200       0.00231400
P        0.80368753       4.40731114      15.04207429       0.00000000 NULL      -0.01032800       0.00643000      -0.00683600
P        4.35910496       0.75692635      15.04207429       0.00000000 NULL       0.01032800      -0.00643000      -0.00683600
P        1.77770871       1.82519240      23.85625627       0.00000000 NULL       0.01033600       0.00643700       0.00684000
P        3.38508378       3.33904509      23.85625627       0.00000000 NULL      -0.01033600      -0.00643700       0.00684000
P        4.01820719       1.14601534      10.10179404       0.00000000 NULL      -0.00675800       0.00058000       0.00419400
P        1.14458531       4.01822215      10.10179404       0.00000000 NULL       0.00675800      -0.00058000       0.00419400
P        3.72598156       3.72813409      28.79653652       0.00000000 NULL       0.00675400       0.00057700      -0.00419400
P        1.43681094       1.43610340      28.79653652       0.00000000 NULL      -0.00675400      -0.00057700      -0.00419400
P        3.33932591       1.77831336      25.41225892       0.00000000 NULL       0.00262000       0.00993800       0.00120800
P        1.82346659       3.38592412      25.41225892       0.00000000 NULL      -0.00262000      -0.00993700       0.00120800
P        4.40486284       4.36043211      13.48607164       0.00000000 NULL      -0.00262700       0.00993000      -0.00121200
P        0.75792966       0.80380538      13.48607164       0.00000000 NULL       0.00262700      -0.00993000      -0.00121200
P        3.72169343       1.44265831      28.81295201       0.00000000 NULL       0.00190000      -0.00031800      -0.00124400
P        1.44109906       3.72157918      28.81295201       0.00000000 NULL      -0.00190000       0.00031800      -0.00124400
P        4.02249531       4.02477705      10.08537855       0.00000000 NULL      -0.00190400      -0.00032200       0.00124400
P        1.14029718       1.13946043      10.08537855       0.00000000 NULL       0.00190400       0.00032200       0.00124400
32
Lattice="5.163739599668356 0.0 0.0 0.0 5.164766701985097 0.0 0.0 0.0 38.89500275697253" Properties=species:S:1:pos:R:3:initial_magmoms:R:1:castep_labels:S:1:forces:R:3 n_minim_iter=4 energy=-175.497769386519 stress="3.31915942347561e-05 -0.0 0.0 -0.0 5.898906916133389e-05 -0.0 0.0 -0.0 2.481416310202213e-05" free_energy=-175.497769386519 pbc="T T T"
P        1.44333715       3.71976780       7.89298252       0.00000000 NULL       0.00096100       0.00013000       0.00360000
P        3.72040245       1.44499890       7.89298252       0.00000000 NULL      -0.00096100      -0.00013000       0.00360000
P        1.13853265       1.13738445      31.00202023       0.00000000 NULL      -0.00096400       0.00012800      -0.00360000
P        4.02520695       4.02738225      31.00202023       0.00000000 NULL       0.00096400      -0.00012800      -0.00360000
P        1.13806513       4.02516390      31.01189069       0.00000000 NULL       0.00418300       0.00075700      -0.00026900
P        4.02567447       1.13960280      31.01189069       0.00000000 NULL      -0.00418300      -0.00075700      -0.00026900
P        1.44380467       1.44278055       7.88311207       0.00000000 NULL      -0.00418600       0.00075500       0.00026900
P        3.71993493       3.72198615       7.88311207       0.00000000 NULL       0.00418600      -0.00075500       0.00026900
P        1.13852074       1.14045846      20.54040475       0.00000000 NULL      -0.00573200       0.00410800      -0.00184900
P        4.02521886       4.02430825      20.54040475       0.00000000 NULL       0.00573200      -0.00410800      -0.00184900
P        1.44334906       3.72284181      18.35459801       0.00000000 NULL       0.00573000       0.00411000       0.00184900
P        3.72039054       1.44192489      18.35459801       0.00000000 NULL      -0.00573000      -0.00411000       0.00184900
P        4.02247855       1.13893429      20.55954833       0.00000000 NULL       0.00139200       0.00049400      -0.00047000
P        1.14126105       4.02583241      20.55954833       0.00000000 NULL      -0.00139200      -0.00049400      -0.00047000
P        3.72313085       3.72131764      18.33545443       0.00000000 NULL      -0.00139000       0.00049600       0.00047000
P        1.44060875       1.44344906      18.33545443       0.00000000 NULL       0.00139000      -0.00049600       0.00047000
P        0.80314859       4.40818998      15.04045895       0.00000000 NULL       0.00324000      -0.00954600       0.00243800
P        4.36059100       0.75657672      15.04045895       0.00000000 NULL      -0.00324000       0.00954600       0.00243800
P        1.77872120       1.82580663      23.85454381       0.00000000 NULL      -0.00324700      -0.00955100      -0.00244100
P        3.38501839       3.33896007      23.85454381       0.00000000 NULL       0.00324700       0.00955100      -0.00244100
P        4.01863752       1.14615356      10.10126154       0.00000000 NULL      -0.00299100      -0.00100800       0.00281000
P        1.14510208       4.01861315      10.10126154       0.00000000 NULL       0.00299100       0.00100800       0.00281000
P        3.72697188       3.72853691      28.79374122       0.00000000 NULL       0.00299300      -0.00100600      -0.00281000
P        1.43676772       1.43622980      28.79374122       0.00000000 NULL      -0.00299300       0.00100600      -0.00281000
P        3.33997554       1.77906637      25.41016851       0.00000000 NULL       0.00815300       0.00010500       0.01031600
P        1.82376406       3.38570033      25.41016851       0.00000000 NULL      -0.00815300      -0.00010500       0.01031600
P        4.40563386       4.36144973      13.48483425       0.00000000 NULL      -0.00814700       0.00011100      -0.01031300
P        0.75810574       0.80331698      13.48483425       0.00000000 NULL       0.00814700      -0.00011100      -0.01031300
P        3.72242724       1.44280137      28.81030055       0.00000000 NULL      -0.00100000       0.00060300       0.00174400
P        1.44131236       3.72196533      28.81030055       0.00000000 NULL       0.00100000      -0.00060300       0.00174400
P        4.02318216       4.02518472      10.08470220       0.00000000 NULL       0.00100200       0.00060500      -0.00174400
P        1.14055744       1.13958198      10.08470220       0.00000000 NULL      -0.00100200      -0.00060500      -0.00174400
32
Lattice="5.163532542698128 0.0 0.0 0.0 5.164440427336582 0.0 0.0 0.0 38.893152423663835" Properties=species:S:1:pos:R:3:initial_magmoms:R:1:castep_labels:S:1:forces:R:3 n_minim_iter=5 energy=-175.497774190094 stress="-1.0181706742658931e-05 0.0 -0.0 0.0 -4.03990068671789e-06 -0.0 -0.0 -0.0 -1.6410288708338544e-05" free_energy=-175.497774190094 pbc="T T T"
P        1.44326962       3.71954336       7.89261580       0.00000000 NULL       0.00073400       0.00061400       0.00245800
P        3.72026292       1.44489707       7.89261580       0.00000000 NULL      -0.00073400      -0.00061400       0.00245800
P        1.13849665       1.13732314      31.00053662       0.00000000 NULL      -0.00073600       0.00061600      -0.00245800
P        4.02503589       4.02711728      31.00053662       0.00000000 NULL       0.00073600      -0.00061600      -0.00245800
P        1.13805108       4.02490252      31.01043119       0.00000000 NULL       0.00434300       0.00027100       0.00068900
P        4.02548146       1.13953791      31.01043119       0.00000000 NULL      -0.00434300      -0.00027100       0.00068900
P        1.44371519       1.44268231       7.88272124       0.00000000 NULL      -0.00434600       0.00027300      -0.00068900
P        3.71981736       3.72175812       7.88272124       0.00000000 NULL       0.00434600      -0.00027300      -0.00068900
P        1.13845062       1.14041614      20.53941926       0.00000000 NULL      -0.00518300       0.00444800      -0.00064400
P        4.02508192       4.02402429      20.53941926       0.00000000 NULL       0.00518300      -0.00444800      -0.00064400
P        1.44331565       3.72263636      18.35373317       0.00000000 NULL       0.00518100       0.00444600       0.00064400
P        3.72021689       1.44180407      18.35373317       0.00000000 NULL      -0.00518100      -0.00444600       0.00064400
P        4.02232407       1.13887823      20.55856857       0.00000000 NULL       0.00085100       0.00090000       0.00073400
P        1.14120847       4.02556220      20.55856857       0.00000000 NULL      -0.00085100      -0.00090000       0.00073400
P        3.72297475       3.72109845      18.33458385       0.00000000 NULL      -0.00084900       0.00089700      -0.00073400
P        1.44055780       1.44334198      18.33458385       0.00000000 NULL       0.00084900      -0.00089700      -0.00073400
P        0.80308730       4.40791975      15.03973046       0.00000000 NULL       0.00523900      -0.01183300       0.00411400
P        4.36044525       0.75652067      15.03973046       0.00000000 NULL      -0.00523900       0.01183300       0.00411400
P        1.77867897       1.82569954      23.85342197       0.00000000 NULL      -0.00524200      -0.01183000      -0.00411400
P        3.38485357       3.33874089      23.85342197       0.00000000 NULL       0.00524200       0.01183000      -0.00411400
P        4.01845769       1.14608100      10.10080036       0.00000000 NULL      -0.00330900      -0.00041300       0.00384300
P        1.14507485       4.01835943      10.10080036       0.00000000 NULL       0.00330900       0.00041300       0.00384300
P        3.72684113       3.72830121      28.79235206       0.00000000 NULL       0.00331100      -0.00041500      -0.00384300
P        1.43669142       1.43613922      28.79235206       0.00000000 NULL      -0.00331100       0.00041500      -0.00384300
P        3.33985383       1.77898160      25.40897679       0.00000000 NULL       0.00975000      -0.00202100       0.01188900
P        1.82367871       3.38545883      25.40897679       0.00000000 NULL      -0.00975000       0.00202100       0.01188900
P        4.40544499       4.36120181      13.48417563       0.00000000 NULL      -0.00974600      -0.00202400      -0.01188900
P        0.75808756       0.80323862      13.48417563       0.00000000 NULL       0.00974600       0.00202400      -0.01188900
P        3.72227916       1.44271063      28.80892349       0.00000000 NULL      -0.00062400      -0.00003200       0.00082700
P        1.44125338       3.72172980      28.80892349       0.00000000 NULL       0.00062400       0.00003200       0.00082700
P        4.02301965       4.02493084      10.08422893       0.00000000 NULL       0.00062700      -0.00003400      -0.00082600
P        1.14051289       1.13950958      10.08422893       0.00000000 NULL      -0.00062700       0.00003500      -0.00082600
32
Lattice="5.16303750268037 0.0 0.0 0.0 5.163899445784475 0.0 0.0 0.0 38.88813836862844" Properties=species:S:1:pos:R:3:initial_magmoms:R:1:castep_labels:S:1:forces:R:3 n_minim_iter=6 energy=-175.497864310299 stress="-5.015371798411645e-07 -0.0 0.0 -0.0 1.0995238173440916e-05 -0.0 0.0 -0.0 -2.845259001021991e-06" free_energy=-175.497864310299 pbc="T T T"
P        1.44298231       3.71941754       7.89194617       0.00000000 NULL       0.00469700      -0.00124000      -0.00029600
P        3.72005519       1.44448191       7.89194617       0.00000000 NULL      -0.00469700       0.00124000      -0.00029600
P        1.13853644       1.13746782      30.99619219       0.00000000 NULL      -0.00470000      -0.00123700       0.00029600
P        4.02450107       4.02643163      30.99619219       0.00000000 NULL       0.00470000       0.00123700       0.00029600
P        1.13886813       4.02434495      31.00678818       0.00000000 NULL      -0.00207500       0.00234600      -0.00097100
P        4.02416938       1.13955450      31.00678818       0.00000000 NULL       0.00207500      -0.00234600      -0.00097100
P        1.44265062       1.44239523       7.88135018       0.00000000 NULL       0.00207300       0.00234800       0.00097100
P        3.72038688       3.72150422       7.88135018       0.00000000 NULL      -0.00207200      -0.00234800       0.00097100
P        1.13751013       1.14119985      20.53655281       0.00000000 NULL       0.00059800      -0.00097100       0.00479200
P        4.02552737       4.02269960      20.53655281       0.00000000 NULL      -0.00059800       0.00097100       0.00479200
P        1.44400862       3.72314957      18.35158556       0.00000000 NULL      -0.00060100      -0.00097300      -0.00479300
P        3.71902889       1.44074988      18.35158556       0.00000000 NULL       0.00060100       0.00097300      -0.00479300
P        4.02212832       1.13914928      20.55592333       0.00000000 NULL      -0.00376900      -0.00380700       0.00484500
P        1.14090919       4.02475017      20.55592333       0.00000000 NULL       0.00376900       0.00380700       0.00484500
P        3.72242794       3.72109900      18.33221503       0.00000000 NULL       0.00377200      -0.00381000      -0.00484500
P        1.44060957       1.44280045      18.33221503       0.00000000 NULL      -0.00377200       0.00381000      -0.00484500
P        0.80277326       4.40682914      15.03779656       0.00000000 NULL      -0.00353900      -0.00640300      -0.00804800
P        4.36026424       0.75707030      15.03779656       0.00000000 NULL       0.00353900       0.00640300      -0.00804800
P        1.77874549       1.82487942      23.85034181       0.00000000 NULL       0.00353500      -0.00640000       0.00804800
P        3.38429201       3.33902003      23.85034181       0.00000000 NULL      -0.00353500       0.00640000       0.00804800
P        4.01747457       1.14594098      10.10013328       0.00000000 NULL      -0.00086900       0.00018900       0.00327900
P        1.14556293       4.01795846      10.10013328       0.00000000 NULL       0.00086900      -0.00018900       0.00327900
P        3.72708168       3.72789071      28.78800509       0.00000000 NULL       0.00087200       0.00018700      -0.00327900
P        1.43595582       1.43600874      28.78800509       0.00000000 NULL      -0.00087100      -0.00018700      -0.00327900
P        3.34042669       1.77920277      25.40682581       0.00000000 NULL      -0.00028300       0.00477100      -0.00091000
P        1.82261081       3.38469668      25.40682581       0.00000000 NULL       0.00028300      -0.00477100      -0.00091000
P        4.40412956       4.36115249      13.48131256       0.00000000 NULL       0.00028600       0.00476800       0.00091000
P        0.75890794       0.80274696      13.48131256       0.00000000 NULL      -0.00028600      -0.00476800       0.00091000
P        3.72190757       1.44255497      28.80514210       0.00000000 NULL      -0.00132000      -0.00169700      -0.00015800
P        1.44112994       3.72134448      28.80514210       0.00000000 NULL       0.00132000       0.00169700      -0.00015800
P        4.02264869       4.02450469      10.08299627       0.00000000 NULL       0.00132300      -0.00169900       0.00015800
P        1.14038882       1.13939475      10.08299627       0.00000000 NULL      -0.00132300       0.00169900       0.00015800
32
Lattice="5.1629744828033655 0.0 0.0 0.0 5.16355236124742 0.0 0.0 0.0 38.877927465280585" Properties=species:S:1:pos:R:3:initial_magmoms:R:1:castep_labels:S:1:forces:R:3 n_minim_iter=7 energy=-175.497968103796 stress="-9.64824686558632e-09 0.0 -0.0 0.0 7.31337112411443e-06 0.0 -0.0 0.0 -5.113570838760749e-07" free_energy=-175.497968103796 pbc="T T T"
P        1.44370647       3.71925516       7.89023919       0.00000000 NULL       0.00124300       0.00119400       0.00113100
P        3.71926801       1.44429720       7.89023919       0.00000000 NULL      -0.00124300      -0.00119400       0.00113100
P        1.13778077       1.13747898      30.98768827       0.00000000 NULL      -0.00123900       0.00119700      -0.00113100
P        4.02519371       4.02607338      30.98768827       0.00000000 NULL       0.00123900      -0.00119700      -0.00113100
P        1.13952032       4.02435023      30.99884032       0.00000000 NULL      -0.00329700       0.00064100       0.00064300
P        4.02345416       1.13920213      30.99884032       0.00000000 NULL       0.00329700      -0.00064100       0.00064300
P        1.44196692       1.44257405       7.87908714       0.00000000 NULL       0.00330000       0.00064400      -0.00064300
P        3.72100757       3.72097831       7.87908714       0.00000000 NULL      -0.00330000      -0.00064400      -0.00064300
P        1.13666432       1.14199855      20.53182538       0.00000000 NULL       0.00410200      -0.00366500      -0.00243300
P        4.02631016       4.02155381      20.53182538       0.00000000 NULL      -0.00410200       0.00366500      -0.00243300
P        1.44482292       3.72377473      18.34610209       0.00000000 NULL      -0.00409800      -0.00366800       0.00243200
P        3.71815156       1.43977763      18.34610209       0.00000000 NULL       0.00409800       0.00366800       0.00243200
P        4.02155319       1.13880389      20.55145558       0.00000000 NULL      -0.00425700      -0.00441400      -0.00366200
P        1.14142129       4.02474847      20.55145558       0.00000000 NULL       0.00425700       0.00441400      -0.00366200
P        3.72290853       3.72058007      18.32647188       0.00000000 NULL       0.00425400      -0.00441700       0.00366200
P        1.44006595       1.44297229      18.32647188       0.00000000 NULL      -0.00425400       0.00441700       0.00366200
P        0.80181863       4.40451017      15.03227778       0.00000000 NULL      -0.00992200       0.00396900       0.00017300
P        4.36115585       0.75904219      15.03227778       0.00000000 NULL       0.00992200      -0.00396900       0.00017300
P        1.77966861       1.82273399      23.84564968       0.00000000 NULL       0.00992900       0.00397500      -0.00017000
P        3.38330587       3.34081837      23.84564968       0.00000000 NULL      -0.00992900      -0.00397500      -0.00017000
P        4.01656168       1.14590352      10.09883072       0.00000000 NULL       0.00362800      -0.00184000      -0.00277100
P        1.14641280       4.01764885      10.09883072       0.00000000 NULL      -0.00362700       0.00184000      -0.00277100
P        3.72790004       3.72767970      28.77909674       0.00000000 NULL      -0.00363100      -0.00184300       0.00277100
P        1.43507444       1.43587266      28.77909674       0.00000000 NULL       0.00363100       0.00184300       0.00277100
P        3.34137391       1.78043648      25.40126866       0.00000000 NULL       0.00956900      -0.00240700       0.00618900
P        1.82160057       3.38311588      25.40126866       0.00000000 NULL      -0.00956900       0.00240700       0.00618900
P        4.40308781       4.36221266      13.47665880       0.00000000 NULL      -0.00957600      -0.00241300      -0.00619300
P        0.75988667       0.80133970      13.47665880       0.00000000 NULL       0.00957600       0.00241300      -0.00619300
P        3.72159242       1.44209486      28.79749368       0.00000000 NULL      -0.00333800       0.00000000      -0.00529500
P        1.44138207       3.72145750      28.79749368       0.00000000 NULL       0.00333800      -0.00000000      -0.00529500
P        4.02286931       4.02387104      10.08043379       0.00000000 NULL       0.00333500      -0.00000200       0.00529500
P        1.14010518       1.13968132      10.08043379       0.00000000 NULL      -0.00333500       0.00000200       0.00529500
32
Lattice="5.163047224682571 0.0 0.0 0.0 5.163420017259598 0.0 0.0 0.0 38.86546013819125" Properties=species:S:1:pos:R:3:initial_magmoms:R:1:castep_labels:S:1:forces:R:3 n_minim_iter=8 energy=-175.498080582118 stress="2.5190289806548336e-06 -0.0 0.0 -0.0 3.05951029451181e-06 0.0 0.0 0.0 2.287394131858987e-06" free_energy=-175.498080582118 pbc="T T T"
P        1.44469968       3.71942656       7.88826312       0.00000000 NULL      -0.00421100       0.00243300      -0.00227200
P        3.71834755       1.44399346       7.88826312       0.00000000 NULL       0.00421100      -0.00243300      -0.00227200
P        1.13682393       1.13771655      30.97719702       0.00000000 NULL       0.00421200       0.00243300       0.00227200
P        4.02622329       4.02570347      30.97719702       0.00000000 NULL      -0.00421200      -0.00243300       0.00227200
P        1.13980927       4.02462324      30.98918789       0.00000000 NULL      -0.00077000      -0.00134100      -0.00463700
P        4.02323796       1.13879677      30.98918789       0.00000000 NULL       0.00077000       0.00134100      -0.00463700
P        1.44171435       1.44291324       7.87627225       0.00000000 NULL       0.00077200      -0.00134000       0.00463700
P        3.72133288       3.72050678       7.87627225       0.00000000 NULL      -0.00077200       0.00134000       0.00463700
P        1.13633913       1.14242892      20.52562851       0.00000000 NULL       0.00190200      -0.00322800      -0.00322700
P        4.02670809       4.02099110      20.52562851       0.00000000 NULL      -0.00190200       0.00322800      -0.00322700
P        1.44518448       3.72413893      18.33983163       0.00000000 NULL      -0.00190000      -0.00322800       0.00322700
P        3.71786275       1.43928109      18.33983163       0.00000000 NULL       0.00190000       0.00322800       0.00322700
P        4.02045886       1.13789334      20.54537126       0.00000000 NULL       0.00148200      -0.00117300      -0.00513100
P        1.14258836       4.02552668      20.54537126       0.00000000 NULL      -0.00148200       0.00117300      -0.00513100
P        3.72411197       3.71960335      18.32008888       0.00000000 NULL      -0.00148300      -0.00117300       0.00513100
P        1.43893525       1.44381667      18.32008888       0.00000000 NULL       0.00148300       0.00117300       0.00513100
P        0.79947966       4.40271009      15.02578897       0.00000000 NULL       0.00151700      -0.00366200       0.00083500
P        4.36356757       0.76070993      15.02578897       0.00000000 NULL      -0.00151700       0.00366200       0.00083500
P        1.78204395       1.82100008      23.83967116       0.00000000 NULL      -0.00151400      -0.00366100      -0.00083400
P        3.38100327       3.34241993      23.83967116       0.00000000 NULL       0.00151500       0.00366100      -0.00083400
P        4.01617397       1.14567826      10.09667219       0.00000000 NULL       0.00390500      -0.00216500      -0.00262500
P        1.14687326       4.01774176      10.09667219       0.00000000 NULL      -0.00390500       0.00216500      -0.00262500
P        3.72839687       3.72738827      28.76878794       0.00000000 NULL      -0.00390600      -0.00216500       0.00262500
P        1.43465036       1.43603175      28.76878794       0.00000000 NULL       0.00390600       0.00216500       0.00262500
P        3.34380402       1.78149970      25.39517829       0.00000000 NULL      -0.00388600       0.01345100       0.00455200
P        1.81924321       3.38192032      25.39517829       0.00000000 NULL       0.00388600      -0.01345100       0.00455200
P        4.40076682       4.36320970      13.47028185       0.00000000 NULL       0.00388300       0.01345000      -0.00455300
P        0.76228040       0.80021031      13.47028185       0.00000000 NULL      -0.00388300      -0.01345000      -0.00455300
P        3.72090117       1.44165270      28.78745656       0.00000000 NULL      -0.00019300       0.00019000      -0.00128000
P        1.44214606       3.72176732      28.78745656       0.00000000 NULL       0.00019300      -0.00019000      -0.00128000
P        4.02366967       4.02336271      10.07800358       0.00000000 NULL       0.00019200       0.00019000       0.00128000
P        1.13937756       1.14005731      10.07800358       0.00000000 NULL      -0.00019200      -0.00019000       0.00128000
32
Lattice="5.163275194819721 0.0 0.0 0.0 5.163849743825363 0.0 0.0 0.0 38.859646203331536" Properties=species:S:1:pos:R:3:initial_magmoms:R:1:castep_labels:S:1:forces:R:3 n_minim_iter=9 energy=-175.498179421225 stress="4.960956330736592e-06 0.0 -0.0 0.0 2.075108192817835e-06 -0.0 -0.0 -0.0 5.260157977142885e-06" free_energy=-175.498179421225 pbc="T T T"
P        1.44504830       3.72030216       7.88725475       0.00000000 NULL      -0.00399400      -0.00138800      -0.00077700
P        3.71822689       1.44354758       7.88725475       0.00000000 NULL       0.00399400       0.00138800      -0.00077700
P        1.13658929       1.13837729      30.97239146       0.00000000 NULL       0.00399500      -0.00139000       0.00077700
P        4.02668590       4.02547245      30.97239146       0.00000000 NULL      -0.00399500       0.00139000       0.00077700
P        1.13999299       4.02510591      30.98418143       0.00000000 NULL      -0.00107700       0.00098600      -0.00618600
P        4.02328221       1.13874384      30.98418143       0.00000000 NULL       0.00107700      -0.00098600      -0.00618600
P        1.44164461       1.44318103       7.87546477       0.00000000 NULL       0.00107800       0.00098500       0.00618600
P        3.72163059       3.72066871       7.87546477       0.00000000 NULL      -0.00107800      -0.00098500       0.00618600
P        1.13634994       1.14248954      20.52246875       0.00000000 NULL      -0.00127300      -0.00121100       0.00154400
P        4.02692526       4.02136020      20.52246875       0.00000000 NULL       0.00127300       0.00121100       0.00154400
P        1.44528766       3.72441441      18.33717746       0.00000000 NULL       0.00127400      -0.00120900      -0.00154400
P        3.71798754       1.43943533      18.33717746       0.00000000 NULL      -0.00127400       0.00120900      -0.00154400
P        4.01982303       1.13705352      20.54205505       0.00000000 NULL       0.00688100       0.00305900      -0.00000900
P        1.14345216       4.02679622      20.54205505       0.00000000 NULL      -0.00688000      -0.00305900      -0.00000900
P        3.72508976       3.71897839      18.31759115       0.00000000 NULL      -0.00688100       0.00306100       0.00000900
P        1.43818544       1.44487135      18.31759115       0.00000000 NULL       0.00688100      -0.00306100       0.00000900
P        0.79769798       4.40105055      15.02222733       0.00000000 NULL      -0.00432100      -0.00100500      -0.00478700
P        4.36557722       0.76279919      15.02222733       0.00000000 NULL       0.00432100       0.00100500      -0.00478700
P        1.78393962       1.81912568      23.83741888       0.00000000 NULL       0.00432200      -0.00100700       0.00478700
P        3.37933558       3.34472406      23.83741888       0.00000000 NULL      -0.00432200       0.00100700       0.00478700
P        4.01649088       1.14530996      10.09576175       0.00000000 NULL       0.00018900      -0.00001800      -0.00335300
P        1.14678432       4.01853978      10.09576175       0.00000000 NULL      -0.00018900       0.00001800      -0.00335300
P        3.72842191       3.72723483      28.76388445       0.00000000 NULL      -0.00018900      -0.00001700       0.00335400
P        1.43485328       1.43661491      28.76388445       0.00000000 NULL       0.00019000       0.00001700       0.00335300
P        3.34555570       1.78440723      25.39384323       0.00000000 NULL       0.00498500      -0.00081900      -0.00260000
P        1.81771949       3.37944251      25.39384323       0.00000000 NULL      -0.00498500       0.00081900      -0.00260000
P        4.39935709       4.36633210      13.46580297       0.00000000 NULL      -0.00498600      -0.00081700       0.00260100
P        0.76391811       0.79751764      13.46580297       0.00000000 NULL       0.00498600       0.00081700       0.00260100
P        3.72038596       1.44143904      28.78226640       0.00000000 NULL       0.00489700      -0.00017000       0.00241400
P        1.44288924       3.72241071      28.78226640       0.00000000 NULL      -0.00489800       0.00016900       0.00241400
P        4.02452684       4.02336391      10.07737980       0.00000000 NULL      -0.00489900      -0.00016800      -0.00241400
P        1.13874836       1.14048583      10.07737980       0.00000000 NULL       0.00489800       0.00016800      -0.00241400
