7
Lattice="4.343099999999996 2.46698890104772e-16 -3.580721257768672e-16 0.37665845681104265 4.451402817428763 -9.059287702928081e-16 0.7865502764913695 0.6486800524743469 7.699774748164604" Properties=species:S:1:pos:R:3:initial_magmoms:R:1:castep_labels:S:1 n_minim_iter=1 pbc="T T T"
P        1.07555407       4.57741234       1.72715649       0.00000000 NULL
P        4.19084133       0.99574781       3.38888877       0.00000000 NULL
P        2.48957732       3.13393399       2.19345331       0.00000000 NULL
P        4.69989260       2.93865412       2.62780146       0.00000000 NULL
P        3.65499199       2.00129809       5.30386356       0.00000000 NULL
P        1.65935930       2.11209007       3.99474093       0.00000000 NULL
P        4.56831590       4.24906946       7.68883722       0.00000000 NULL
7
Lattice="4.347612525323599 -0.0014536753429180542 -0.0005838103441077354 0.37555988351261915 4.457683684532578 -0.0008496905514923975 0.786115368176559 0.647968271488326 7.70468009165104" Properties=species:S:1:pos:R:3:initial_magmoms:R:1:castep_labels:S:1 n_minim_iter=2 pbc="T T T"
P        1.07491450       4.58355058       1.72677712       0.00000000 NULL
P        4.19432720       0.99508831       3.39059272       0.00000000 NULL
P        2.49111118       3.13707124       2.19393634       0.00000000 NULL
P        4.70303144       2.94079541       2.62831129       0.00000000 NULL
P        3.65734708       2.00203533       5.30664222       0.00000000 NULL
P        1.66005085       2.11385476       3.99707797       0.00000000 NULL
P        4.57064401       4.25229811       7.69273966       0.00000000 NULL
7
Lattice="4.53108902679086 -0.06299661107653924 -0.025083131318130506 0.328394397658339 4.716546260806482 -0.03528423635809311 0.7667173725500894 0.6194354990666762 7.900593967630923" Properties=species:S:1:pos:R:3:initial_magmoms:R:1:castep_labels:S:1 n_minim_iter=3 pbc="T T T"
P        1.04605742       4.83683146       1.71016021       0.00000000 NULL
P        4.33489080       0.96679393       3.45781912       0.00000000 NULL
P        2.55175502       3.26553453       2.21215605       0.00000000 NULL
P        4.82802649       3.02794782       2.64721266       0.00000000 NULL
P        3.75090340       2.03191734       5.41670298       0.00000000 NULL
P        1.68648964       2.18640165       4.09025339       0.00000000 NULL
P        4.66160267       4.38482294       7.84759060       0.00000000 NULL
7
Lattice="4.561228557056014 -0.12169923772455994 -0.061652450160482555 0.2708417903748811 4.822725560899816 -0.024896084611267983 0.6985751504389319 0.6484737939167574 7.854774656649487" Properties=species:S:1:pos:R:3:initial_magmoms:R:1:castep_labels:S:1 n_minim_iter=4 pbc="T T T"
P        0.97675645       4.94264087       1.69111663       0.00000000 NULL
P        4.32264891       0.94636392       3.41205926       0.00000000 NULL
P        2.51530040       3.31366322       2.18420558       0.00000000 NULL
P        4.78626936       3.04495033       2.60037899       0.00000000 NULL
P        3.70181724       2.05010779       5.36299570       0.00000000 NULL
P        1.64107489       2.22961247       4.06876940       0.00000000 NULL
P        4.57373370       4.45313258       7.79125213       0.00000000 NULL
7
Lattice="4.5637922822426695 -0.20463825743753358 -0.1071409976898267 0.1860568816109519 4.920804316183797 0.0009821519869001158 0.6060062575968819 0.7003804842754032 7.700850860634971" Properties=species:S:1:pos:R:3:initial_magmoms:R:1:castep_labels:S:1 n_minim_iter=5 pbc="T T T"
P        0.87102919       5.03991091       1.66123801       0.00000000 NULL
P        4.27267735       0.91529040       3.31275656       0.00000000 NULL
P        2.44170494       3.35062714       2.12930370       0.00000000 NULL
P        4.68988306       3.04150843       2.51673469       0.00000000 NULL
P        3.60620748       2.06525369       5.23282488       0.00000000 NULL
P        1.56689693       2.27576937       3.99642494       0.00000000 NULL
P        4.41829401       4.51908337       7.63694258       0.00000000 NULL
7
Lattice="4.615141186239268 -0.5564128156400412 -0.25373657279662104 -0.17003652184374754 5.310457198384341 0.13361939844854046 0.30286943098965596 0.9493201338334617 7.036051879943163" Properties=species:S:1:pos:R:3:initial_magmoms:R:1:castep_labels:S:1 n_minim_iter=6 pbc="T T T"
P        0.45593717       5.42703857       1.57614785       0.00000000 NULL
P        4.13392396       0.79437120       2.92173037       0.00000000 NULL
P        2.17145424       3.49531563       1.93159998       0.00000000 NULL
P        4.35690815       3.02175244       2.21801519       0.00000000 NULL
P        3.28955630       2.14174695       4.71568645       0.00000000 NULL
P        1.31424626       2.47520898       3.69882996       0.00000000 NULL
P        3.87938021       4.81038476       7.01761868       0.00000000 NULL
7
Lattice="4.9764243876228775 -0.704700663236242 -0.20655354607859713 -0.2906896427654976 5.446858437516048 0.0747290367749624 0.4298005886524676 0.8352726712299096 6.728478237448331" Properties=species:S:1:pos:R:3:initial_magmoms:R:1:castep_labels:S:1 n_minim_iter=7 pbc="T T T"
P        0.41622340       5.53498194       1.44561819       0.00000000 NULL
P        4.47171808       0.64704327       2.81575158       0.00000000 NULL
P        2.30418511       3.48184224       1.81005974       0.00000000 NULL
P        4.61816398       2.91229828       2.11413709       0.00000000 NULL
P        3.57855665       2.00181684       4.50961901       0.00000000 NULL
P        1.47650956       2.42649467       3.55415835       0.00000000 NULL
P        4.20365409       4.68857733       6.71655807       0.00000000 NULL
7
Lattice="4.7713351273776246 -0.7452962427531495 -0.23717731481090867 -0.35008405719510405 5.369125618681565 0.10008367820331326 0.33230279256643575 0.8655570513841897 6.539832917341781" Properties=species:S:1:pos:R:3:initial_magmoms:R:1:castep_labels:S:1 n_minim_iter=8 pbc="T T T"
P        0.30926807       5.45676621       1.42450179       0.00000000 NULL
P        4.24239231       0.62064726       2.70953295       0.00000000 NULL
P        2.14324909       3.42050669       1.75574873       0.00000000 NULL
P        4.34190993       2.83697054       2.03872291       0.00000000 NULL
P        3.34770825       1.97096464       4.36370013       0.00000000 NULL
P        1.35356283       2.39191840       3.46257371       0.00000000 NULL
P        3.89918387       4.62233426       6.52497287       0.00000000 NULL
7
Lattice="4.8326697160020045 -0.7433692829511758 -0.23485499193004225 -0.34278975916098603 5.4601679024287 0.09313774602002997 0.347815693743391 0.8667857577298207 6.629530368043339" Properties=species:S:1:pos:R:3:initial_magmoms:R:1:castep_labels:S:1 n_minim_iter=9 pbc="T T T"
P        0.33232320       5.55324227       1.43548860       0.00000000 NULL
P        4.30177622       0.63734262       2.74934915       0.00000000 NULL
P        2.18067441       3.48560028       1.77412166       0.00000000 NULL
P        4.40085016       2.89164819       2.06774823       0.00000000 NULL
P        3.40347555       2.00473607       4.42499688       0.00000000 NULL
P        1.38594158       2.42649160       3.51507331       0.00000000 NULL
P        3.97097921       4.69619333       6.60862151       0.00000000 NULL
7
Lattice="4.816452830471785 -0.7524629880514947 -0.23485950495140212 -0.3535166527583079 5.461314128018634 0.09730581454729444 0.3435125346756311 0.8726311740327013 6.613258481421856" Properties=species:S:1:pos:R:3:initial_magmoms:R:1:castep_labels:S:1 n_minim_iter=10 pbc="T T T"
P        0.32043561       5.55521837       1.43569248       0.00000000 NULL
P        4.28353446       0.63418948       2.74231492       0.00000000 NULL
P        2.16465493       3.48476307       1.77065036       0.00000000 NULL
P        4.37086955       2.88591575       2.06513395       0.00000000 NULL
P        3.38623540       2.00295188       4.41440455       0.00000000 NULL
P        1.37831284       2.42505378       3.51213248       0.00000000 NULL
P        3.94664502       4.69429926       6.59476265       0.00000000 NULL
7
Lattice="4.813404792495796 -0.7635341164139224 -0.23261109219144527 -0.3651282024037144 5.471449649752209 0.10143725584910224 0.3452931099680953 0.8790521031252758 6.604869829789608" Properties=species:S:1:pos:R:3:initial_magmoms:R:1:castep_labels:S:1 n_minim_iter=11 pbc="T T T"
P        0.31147816       5.56668257       1.43774793       0.00000000 NULL
P        4.27891344       0.63119991       2.74049821       0.00000000 NULL
P        2.15552503       3.48975216       1.76996059       0.00000000 NULL
P        4.35286631       2.88392338       2.06734498       0.00000000 NULL
P        3.38251390       2.00299453       4.41068862       0.00000000 NULL
P        1.37787728       2.42652921       3.51539068       0.00000000 NULL
P        3.93877160       4.69804891       6.58995513       0.00000000 NULL
