2
Lattice="3.1314599999999992 -1.695341177371985e-16 4.627117346943293e-17 -1.0342289518514134 3.721876796073767 -1.937959970075357e-15 -0.5061071616725346 -2.003756920340259 3.603889465770599" Properties=species:S:1:pos:R:3:initial_magmoms:R:1:castep_labels:S:1 n_minim_iter=1 pbc="T T T"
P        0.25694667      -0.00229245       1.02458361       0.00000000 NULL
P        2.02037739       1.27289089       0.23289559       0.00000000 NULL
2
Lattice="3.132048730551131 -0.0006582301212368974 0.00042849461151703506 -1.0352057274115407 3.7215585774938598 -0.0003303758284242122 -0.5052879847937094 -2.003545047592136 3.6037221283373526" Properties=species:S:1:pos:R:3:initial_magmoms:R:1:castep_labels:S:1 n_minim_iter=2 pbc="T T T"
P        0.25728290      -0.00243647       1.02464482       0.00000000 NULL
P        2.02037429       1.27230956       0.23301183       0.00000000 NULL
2
Lattice="3.1937878764209815 -0.06825839440514435 0.04475190336906194 -1.1359420915931802 3.6896146667015737 -0.03454212869519271 -0.4210000363517348 -1.9823544244748121 3.586902084324019" Properties=species:S:1:pos:R:3:initial_magmoms:R:1:castep_labels:S:1 n_minim_iter=3 pbc="T T T"
P        0.29244830      -0.01751671       1.03121415       0.00000000 NULL
P        2.02047780       1.21308812       0.24494813       0.00000000 NULL
2
Lattice="3.224051320230091 -0.10906727726056945 0.07180328766296652 -1.1944403524502272 3.5891305844132755 -0.046746886657017414 -0.36864594762776487 -1.9175716299599765 3.5491635383963844" Properties=species:S:1:pos:R:3:initial_magmoms:R:1:castep_labels:S:1 n_minim_iter=4 pbc="T T T"
P        0.31093635      -0.01929820       1.03118172       0.00000000 NULL
P        2.01830307       1.14518168       0.25128021       0.00000000 NULL
2
Lattice="3.300472053065949 -0.15286863281609356 0.09611223753884524 -1.2717396899155742 3.44863301368487 -0.06924486841183719 -0.3249931602672983 -1.8410748836700275 3.5114529304565827" Properties=species:S:1:pos:R:3:initial_magmoms:R:1:castep_labels:S:1 n_minim_iter=5 pbc="T T T"
P        0.32850468      -0.02549830       1.04068789       0.00000000 NULL
P        2.04830004       1.06173642       0.24000749       0.00000000 NULL
2
Lattice="3.346501403088429 -0.16816973996723647 0.09171103810486031 -1.3051278609566386 3.3293812232161435 -0.07640417610946049 -0.3277067573202601 -1.7800191929217726 3.4971923173191946" Properties=species:S:1:pos:R:3:initial_magmoms:R:1:castep_labels:S:1 n_minim_iter=6 pbc="T T T"
P        0.32305698      -0.02698485       1.05669957       0.00000000 NULL
P        2.07924632       1.00674927       0.21101277       0.00000000 NULL
2
Lattice="3.4159437687363514 -0.20942447406756 0.09484656829602789 -1.3770956787203303 3.1793111390836577 -0.09703834903060439 -0.30892341517378463 -1.7041998117618773 3.5108190926369587" Properties=species:S:1:pos:R:3:initial_magmoms:R:1:castep_labels:S:1 n_minim_iter=7 pbc="T T T"
P        0.31781074      -0.03155087       1.10009111       0.00000000 NULL
P        2.11951373       0.91880821       0.16446073       0.00000000 NULL
2
Lattice="3.424272853115465 -0.29027346150050654 0.09254815328716669 -1.4759390778121406 3.0456237541509075 -0.09745131589461722 -0.261181123981041 -1.6059186037111899 3.5402882332419914" Properties=species:S:1:pos:R:3:initial_magmoms:R:1:castep_labels:S:1 n_minim_iter=8 pbc="T T T"
P        0.29442226      -0.02098344       1.17606291       0.00000000 NULL
P        2.11523181       0.79429335       0.09634997       0.00000000 NULL
