6
Lattice="2.7450399999999995 -6.57200155308876e-16 -4.603408282376812e-16 1.2099967881691587 6.599766755387668 1.008914796827169e-15 1.0437127364752379 0.05930754739212345 7.290116949311696" Properties=species:S:1:pos:R:3:initial_magmoms:R:1:castep_labels:S:1 n_minim_iter=1 pbc="T T T"
P        3.66925183       5.20878076       5.14987567       0.00000000 NULL
P        3.11099654       1.33860836       3.18561854       0.00000000 NULL
P        2.51132962       3.49030992       4.84641143       0.00000000 NULL
P        1.52454579       4.42201679       0.54112059       0.00000000 NULL
P        3.94962640       3.71921113       6.51971051       0.00000000 NULL
P        3.81696941       5.95846552       3.27590591       0.00000000 NULL
6
Lattice="2.7496397345196844 8.128069416062546e-05 -0.00014021211821257904 1.2122197421583272 6.606513292645856 -0.0019325629974402173 1.0450910257977033 0.05733231244360134 7.304762101039464" Properties=species:S:1:pos:R:3:initial_magmoms:R:1:castep_labels:S:1 n_minim_iter=2 pbc="T T T"
P        3.67530429       5.21302828       5.15864851       0.00000000 NULL
P        3.11606884       1.33933578       3.19153084       0.00000000 NULL
P        2.51538325       3.49228710       4.85477146       0.00000000 NULL
P        1.52719915       4.42648414       0.54130345       0.00000000 NULL
P        3.95601804       3.72098262       6.53178636       0.00000000 NULL
P        3.82339763       5.96370138       3.28028386       0.00000000 NULL
6
Lattice="2.9124716866600933 0.0028868328830766203 -0.005253207400838185 1.2907403207903732 6.841264989560332 -0.07259526588405538 1.0934844332532818 -0.015067179525388578 7.826325752707952" Properties=species:S:1:pos:R:3:initial_magmoms:R:1:castep_labels:S:1 n_minim_iter=3 pbc="T T T"
P        3.88918575       5.35852831       5.46947196       0.00000000 NULL
P        3.29536758       1.36311542       3.40161964       0.00000000 NULL
P        2.65851455       3.55850366       5.15118927       0.00000000 NULL
P        1.62094640       4.58149643       0.54709750       0.00000000 NULL
P        4.18181599       3.77904349       6.96113121       0.00000000 NULL
P        4.05070493       6.14438210       3.43388067       0.00000000 NULL
6
Lattice="2.955086816004887 -0.005062423315846896 -0.005107213098020112 1.290412796544066 6.8563178794828215 -0.10994633969239871 1.1099034354960264 -0.059252033062934265 8.061791585506993" Properties=species:S:1:pos:R:3:initial_magmoms:R:1:castep_labels:S:1 n_minim_iter=4 pbc="T T T"
P        3.93227119       5.33920023       5.60617937       0.00000000 NULL
P        3.33806833       1.33897458       3.49920286       0.00000000 NULL
P        2.68731155       3.53070038       5.28185951       0.00000000 NULL
P        1.63158093       4.58570729       0.54595269       0.00000000 NULL
P        4.23285852       3.73704017       7.15830515       0.00000000 NULL
P        4.09428275       6.13417001       3.49758100       0.00000000 NULL
6
Lattice="2.9630126972791015 -0.015978585726629056 1.7043565289492434e-05 1.2676612756591625 6.7898349411284835 -0.14259527135098643 1.1262898498171272 -0.10251583941869852 8.252648840052638" Properties=species:S:1:pos:R:3:initial_magmoms:R:1:castep_labels:S:1 n_minim_iter=5 pbc="T T T"
P        3.93407220       5.25372152       5.71723705       0.00000000 NULL
P        3.34481780       1.29428196       3.58415243       0.00000000 NULL
P        2.68866757       3.46168675       5.38693502       0.00000000 NULL
P        1.61934416       4.53366062       0.54359196       0.00000000 NULL
P        4.24164679       3.64924530       7.32553474       0.00000000 NULL
P        4.08939569       6.04935287       3.54910115       0.00000000 NULL
6
Lattice="2.9489393198409006 -0.021312577114297553 0.011768107970179721 1.2486335600219511 6.666883586953757 -0.17582723288429114 1.152031450874328 -0.1480573811421605 8.446927839326927" Properties=species:S:1:pos:R:3:initial_magmoms:R:1:castep_labels:S:1 n_minim_iter=6 pbc="T T T"
P        3.93391403       5.12772724       5.83285619       0.00000000 NULL
P        3.33600243       1.24246952       3.67867768       0.00000000 NULL
P        2.68550729       3.36514772       5.49329312       0.00000000 NULL
P        1.60537362       4.44358698       0.54108189       0.00000000 NULL
P        4.24167133       3.53309897       7.50899692       0.00000000 NULL
P        4.07398204       5.91585514       3.60417527       0.00000000 NULL
6
Lattice="2.945040497866171 -0.0026130860211936355 0.02367173554427834 1.2918732642127329 6.600927510504185 -0.19003298258880494 1.1825660179254986 -0.16310187764986273 8.566821135270951" Properties=species:S:1:pos:R:3:initial_magmoms:R:1:castep_labels:S:1 n_minim_iter=7 pbc="T T T"
P        3.99830742       5.08580895       5.91004102       0.00000000 NULL
P        3.35245746       1.24377345       3.74372995       0.00000000 NULL
P        2.71806130       3.32823101       5.55894915       0.00000000 NULL
P        1.63514411       4.39972554       0.54320343       0.00000000 NULL
P        4.28930024       3.49736473       7.63932780       0.00000000 NULL
P        4.12319982       5.85888046       3.64601761       0.00000000 NULL
6
Lattice="2.939983149669723 0.009163449147908388 0.02738735043571786 1.3179577694397384 6.535648624662273 -0.19311517629508568 1.1907652739616388 -0.16447123306331857 8.589583616696853" Properties=species:S:1:pos:R:3:initial_magmoms:R:1:castep_labels:S:1 n_minim_iter=8 pbc="T T T"
P        4.02764814       5.04357024       5.92305037       0.00000000 NULL
P        3.35605361       1.24384131       3.75869464       0.00000000 NULL
P        2.72982491       3.29963190       5.56819945       0.00000000 NULL
P        1.65060410       4.35744592       0.54275043       0.00000000 NULL
P        4.30780221       3.46948816       7.67204995       0.00000000 NULL
P        4.14568775       5.80497828       3.65342787       0.00000000 NULL
6
Lattice="2.9421481702226067 0.013364634122537702 0.028353672396590986 1.3290128028250883 6.521787700480729 -0.1950892868530975 1.1942455225584634 -0.1656661790404459 8.599050038017085" Properties=species:S:1:pos:R:3:initial_magmoms:R:1:castep_labels:S:1 n_minim_iter=9 pbc="T T T"
P        4.04229543       5.03525273       5.92790107       0.00000000 NULL
P        3.36161125       1.24563767       3.76384405       0.00000000 NULL
P        2.73732974       3.29366438       5.57219801       0.00000000 NULL
P        1.65823311       4.34878865       0.54230481       0.00000000 NULL
P        4.31935387       3.46406271       7.68322482       0.00000000 NULL
P        4.15867410       5.79397060       3.65588766       0.00000000 NULL
6
Lattice="2.950635410373729 0.030371215859030767 0.031932155431240616 1.3736420272045322 6.460311764383171 -0.20421898463504234 1.2073434807373156 -0.17164683720957516 8.633063317605894" Properties=species:S:1:pos:R:3:initial_magmoms:R:1:castep_labels:S:1 n_minim_iter=10 pbc="T T T"
P        4.10063237       4.99633734       5.94318922       0.00000000 NULL
P        3.38353767       1.25138284       3.78227761       0.00000000 NULL
P        2.76684596       3.26605415       5.58481654       0.00000000 NULL
P        1.68869146       4.31009495       0.53923167       0.00000000 NULL
P        4.36516150       3.43807612       7.72381928       0.00000000 NULL
P        4.21028324       5.74415000       3.66274299       0.00000000 NULL
6
Lattice="2.9519197904793457 0.03261278834134026 0.03216250236985376 1.3795974782548381 6.450051074887609 -0.20622228161286602 1.208491996665077 -0.173220639199424 8.635636841630777" Properties=species:S:1:pos:R:3:initial_magmoms:R:1:castep_labels:S:1 n_minim_iter=11 pbc="T T T"
P        4.10808224       4.98886071       5.94295946       0.00000000 NULL
P        3.38640617       1.25147245       3.78348586       0.00000000 NULL
P        2.77048213       3.26079477       5.58471636       0.00000000 NULL
P        1.69263764       4.30350984       0.53805923       0.00000000 NULL
P        4.37098806       3.43272134       7.72685777       0.00000000 NULL
P        4.21693454       5.73526985       3.66194087       0.00000000 NULL
6
Lattice="2.961880682798448 0.04843333352920324 0.033606072500898816 1.422024749222245 6.3782207615199455 -0.2209433042509662 1.2164548616846949 -0.184877295749058 8.653228702356062" Properties=species:S:1:pos:R:3:initial_magmoms:R:1:castep_labels:S:1 n_minim_iter=12 pbc="T T T"
P        4.16147454       4.93619091       5.94030140       0.00000000 NULL
P        3.40759689       1.25202508       3.79143978       0.00000000 NULL
P        2.79668978       3.22352071       5.58327085       0.00000000 NULL
P        1.72087384       4.25741060       0.52933863       0.00000000 NULL
P        4.41305314       3.39472225       7.74727670       0.00000000 NULL
P        4.26475307       5.67292051       3.65542560       0.00000000 NULL
6
Lattice="2.9774160471351574 0.06398991001550226 0.033427801592180145 1.466274566081885 6.305887244420263 -0.2392170522025169 1.2222243456441306 -0.1997724649911258 8.665093707541311" Properties=species:S:1:pos:R:3:initial_magmoms:R:1:castep_labels:S:1 n_minim_iter=13 pbc="T T T"
P        4.21804203       4.88066207       5.92939147       0.00000000 NULL
P        3.43391129       1.25147145       3.79449385       0.00000000 NULL
P        2.82547682       3.18317155       5.57578526       0.00000000 NULL
P        1.75102561       4.21087413       0.51762335       0.00000000 NULL
P        4.45943838       3.35304541       7.75866596       0.00000000 NULL
P        4.31697782       5.60841201       3.64236472       0.00000000 NULL
6
Lattice="2.995142667951576 0.07857036162274714 0.031818302092285235 1.509143425569907 6.227728376501555 -0.26087298474678705 1.2250049212136587 -0.21812635672844272 8.667213279996986" Properties=species:S:1:pos:R:3:initial_magmoms:R:1:castep_labels:S:1 n_minim_iter=14 pbc="T T T"
P        4.27191607       4.81753082       5.90767357       0.00000000 NULL
P        3.46148249       1.24767568       3.79117544       0.00000000 NULL
P        2.85352885       3.13647277       5.55983777       0.00000000 NULL
P        1.78031197       4.16010982       0.50251666       0.00000000 NULL
P        4.50453837       3.30398534       7.75773360       0.00000000 NULL
P        4.36751325       5.53656487       3.62130367       0.00000000 NULL
6
Lattice="3.0168270142962426 0.09279665871218135 0.029173167092679628 1.552905349627003 6.149698415141063 -0.28617101647752 1.2265322620746533 -0.2401311609804177 8.665811243697773" Properties=species:S:1:pos:R:3:initial_magmoms:R:1:castep_labels:S:1 n_minim_iter=15 pbc="T T T"
P        4.32727657       4.75209625       5.87966740       0.00000000 NULL
P        3.49330514       1.24247823       3.78448289       0.00000000 NULL
P        2.88408976       3.08640130       5.53943938       0.00000000 NULL
P        1.81099390       4.10923264       0.48456509       0.00000000 NULL
P        4.55244630       3.25111648       7.75029663       0.00000000 NULL
P        4.42040332       5.46300994       3.59504552       0.00000000 NULL
6
Lattice="3.04004830498765 0.10682860906847645 0.025884231906326452 1.5968774908812222 6.066045865952918 -0.31591394395610456 1.2269300104737848 -0.26685598993343906 8.659457493927556" Properties=species:S:1:pos:R:3:initial_magmoms:R:1:castep_labels:S:1 n_minim_iter=16 pbc="T T T"
P        4.38172840       4.67927243       5.84405086       0.00000000 NULL
P        3.52726215       1.23410629       3.77399867       0.00000000 NULL
P        2.91604652       3.02938639       5.51341033       0.00000000 NULL
P        1.84225264       4.05434368       0.46308783       0.00000000 NULL
P        4.60063242       3.19035650       7.73496528       0.00000000 NULL
P        4.47299651       5.38247088       3.56259901       0.00000000 NULL
6
Lattice="3.0656496259610333 0.1226730214889597 0.022409186913026423 1.6462563496599747 5.978040359469852 -0.35118895996596167 1.2277775877789439 -0.2989581251598442 8.652539321753787" Properties=species:S:1:pos:R:3:initial_magmoms:R:1:castep_labels:S:1 n_minim_iter=17 pbc="T T T"
P        4.44104715       4.60129960       5.80347729       0.00000000 NULL
P        3.56613540       1.22437537       3.76172372       0.00000000 NULL
P        2.95365797       2.96639076       5.48414598       0.00000000 NULL
P        1.87798435       3.99671236       0.43793055       0.00000000 NULL
P        4.65398513       3.12340063       7.71541468       0.00000000 NULL
P        4.53096664       5.29736474       3.52540784       0.00000000 NULL
6
Lattice="3.0933756290350116 0.1403642084763048 0.017428451698163715 1.701011865940505 5.888582411539006 -0.3918966500772821 1.2254741828160411 -0.3356462718425243 8.640257313433104" Properties=species:S:1:pos:R:3:initial_magmoms:R:1:castep_labels:S:1 n_minim_iter=18 pbc="T T T"
P        4.50239514       4.52097746       5.75362296       0.00000000 NULL
P        3.60840826       1.21409698       3.74430539       0.00000000 NULL
P        2.99471303       2.89955752       5.44800912       0.00000000 NULL
P        1.91780099       3.93833082       0.40849003       0.00000000 NULL
P        4.70897452       3.05275385       7.68644186       0.00000000 NULL
P        4.59206452       5.21065222       3.48026518       0.00000000 NULL
6
Lattice="3.1253491142172045 0.15947692234177954 0.009843037124495548 1.7610573545132142 5.802783646973696 -0.4326781600546586 1.2178991028705677 -0.37057999546490245 8.631785034667937" Properties=species:S:1:pos:R:3:initial_magmoms:R:1:castep_labels:S:1 n_minim_iter=19 pbc="T T T"
P        4.56585967       4.44637998       5.70432288       0.00000000 NULL
P        3.65515670       1.20648717       3.72589754       0.00000000 NULL
P        3.03878661       2.83576363       5.41338741       0.00000000 NULL
P        1.96211205       3.88298597       0.37888070       0.00000000 NULL
P        4.76517786       2.98669696       7.65834497       0.00000000 NULL
P        4.65678048       5.12942309       3.43508645       0.00000000 NULL
6
Lattice="3.1566248886870456 0.18011453165750815 0.0015048164185974746 1.8244615287797619 5.717772571675202 -0.4690305925187057 1.2080924283065106 -0.3996739772063702 8.6247259057078" Properties=species:S:1:pos:R:3:initial_magmoms:R:1:castep_labels:S:1 n_minim_iter=20 pbc="T T T"
P        4.62871044       4.37793189       5.65882753       0.00000000 NULL
P        3.70301801       1.20224214       3.70798181       0.00000000 NULL
P        3.08432866       2.77665223       5.38211441       0.00000000 NULL
P        2.00893827       3.82912886       0.35207848       0.00000000 NULL
P        4.81991969       2.92758460       7.63312118       0.00000000 NULL
P        4.72071079       5.05327620       3.39424225       0.00000000 NULL
6
Lattice="3.184613845841507 0.2015875715534892 -0.007880779342834064 1.888425479433924 5.632158639510656 -0.49864728840075256 1.1942725399457808 -0.42050876176250024 8.624153811873015" Properties=species:S:1:pos:R:3:initial_magmoms:R:1:castep_labels:S:1 n_minim_iter=21 pbc="T T T"
P        4.68545839       4.31573887       5.62237629       0.00000000 NULL
P        3.74839520       1.20130164       3.69288897       0.00000000 NULL
P        3.12770328       2.72297900       5.35882714       0.00000000 NULL
P        2.05557385       3.77587638       0.33002864       0.00000000 NULL
P        4.86788434       2.87627307       7.61639676       0.00000000 NULL
P        4.77848537       4.98147830       3.36153032       0.00000000 NULL
6
Lattice="3.209881692324244 0.2233408703001816 -0.018555668963579332 1.9518637939854415 5.551265174557727 -0.5196949777549514 1.176000060942724 -0.43110257434999616 8.633542704856673" Properties=species:S:1:pos:R:3:initial_magmoms:R:1:castep_labels:S:1 n_minim_iter=22 pbc="T T T"
P        4.73543145       4.26489340       5.59879086       0.00000000 NULL
P        3.79131425       1.20512278       3.68220061       0.00000000 NULL
P        3.16822084       2.67873560       5.34678601       0.00000000 NULL
P        2.10124029       3.72679293       0.31411386       0.00000000 NULL
P        4.90868785       2.83711455       7.61227403       0.00000000 NULL
P        4.82947767       4.91909034       3.33970702       0.00000000 NULL
6
Lattice="3.2119743909328693 0.22608645734941824 -0.01995050928849967 1.9593873246905082 5.540986424439445 -0.5211665098894641 1.1731507258260039 -0.43110820449673454 8.635594796680785" Properties=species:S:1:pos:R:3:initial_magmoms:R:1:castep_labels:S:1 n_minim_iter=23 pbc="T T T"
P        4.74002034       4.25939614       5.59732017       0.00000000 NULL
P        3.79565960       1.20604080       3.68137259       0.00000000 NULL
P        3.17244470       2.67399247       5.34653750       0.00000000 NULL
P        2.10644763       3.72067919       0.31289385       0.00000000 NULL
P        4.91207642       2.83333760       7.61321843       0.00000000 NULL
P        4.83408197       4.91181818       3.33831021       0.00000000 NULL
6
Lattice="3.227751765653316 0.2471421089456342 -0.030702485682443777 2.0169649782602965 5.463882618126838 -0.531390841290417 1.1510500062192552 -0.429937417542369 8.652881039979786" Properties=species:S:1:pos:R:3:initial_magmoms:R:1:castep_labels:S:1 n_minim_iter=24 pbc="T T T"
P        4.77466848       4.21936853       5.58795301       0.00000000 NULL
P        3.82892173       1.21389515       3.67574366       0.00000000 NULL
P        3.20463610       2.63946188       5.34625012       0.00000000 NULL
P        2.14627323       3.67503732       0.30431772       0.00000000 NULL
P        4.93743448       2.80647740       7.62246475       0.00000000 NULL
P        4.86862729       4.85807903       3.32919199       0.00000000 NULL
6
Lattice="3.2384885711547895 0.26767420971287864 -0.04082292561930383 2.071062031940355 5.393951268454017 -0.5321402665243332 1.1286986592341701 -0.41874066009641037 8.68209507425254" Properties=species:S:1:pos:R:3:initial_magmoms:R:1:castep_labels:S:1 n_minim_iter=25 pbc="T T T"
P        4.80216852       4.19176676       5.59515945       0.00000000 NULL
P        3.85782380       1.22615784       3.67729056       0.00000000 NULL
P        3.23348162       2.61520383       5.35985308       0.00000000 NULL
P        2.18294554       3.63496336       0.30284828       0.00000000 NULL
P        4.95593274       2.79235992       7.64855135       0.00000000 NULL
P        4.89472448       4.81522663       3.33383577       0.00000000 NULL
6
Lattice="3.2411371551773756 0.27669998387802447 -0.04488868466031066 2.093929743316979 5.362823514758895 -0.5287617066793925 1.1191030972424987 -0.4099127865320551 8.69907772447057" Properties=species:S:1:pos:R:3:initial_magmoms:R:1:castep_labels:S:1 n_minim_iter=26 pbc="T T T"
P        4.81180451       4.18225796       5.60439339       0.00000000 NULL
P        3.86922069       1.23278112       3.68061140       0.00000000 NULL
P        3.24557482       2.60682660       5.37101573       0.00000000 NULL
P        2.19806117       3.61746393       0.30485802       0.00000000 NULL
P        4.96193051       2.78946623       7.66655962       0.00000000 NULL
P        4.90294508       4.79801471       3.34111281       0.00000000 NULL
6
Lattice="3.24157129208536 0.2785391339918058 -0.04564015399118105 2.0985428877678376 5.356447179271484 -0.5278891507059673 1.117312190879352 -0.40794837486140495 8.702796895678992" Properties=species:S:1:pos:R:3:initial_magmoms:R:1:castep_labels:S:1 n_minim_iter=27 pbc="T T T"
P        4.81375475       4.18041843       5.60665564       0.00000000 NULL
P        3.87153075       1.23415795       3.68148081       0.00000000 NULL
P        3.24811569       2.60520596       5.37362628       0.00000000 NULL
P        2.20109548       3.61389213       0.30540906       0.00000000 NULL
P        4.96318920       2.78901140       7.67065657       0.00000000 NULL
P        4.90452330       4.79457957       3.34292345       0.00000000 NULL
6
Lattice="3.2467581681667683 0.30062081520224904 -0.05454194274488494 2.1539191478423296 5.28018925712089 -0.5170981145369135 1.0961205644954004 -0.3840711745020403 8.748585481878385" Properties=species:S:1:pos:R:3:initial_magmoms:R:1:castep_labels:S:1 n_minim_iter=28 pbc="T T T"
P        4.83731802       4.15865528       5.63490782       0.00000000 NULL
P        3.89963129       1.25093622       3.69241626       0.00000000 NULL
P        3.27897627       2.58624265       5.40597374       0.00000000 NULL
P        2.23753549       3.57121896       0.31228762       0.00000000 NULL
P        4.97851217       2.78403690       7.72134392       0.00000000 NULL
P        4.92324734       4.75359891       3.36558918       0.00000000 NULL
6
Lattice="3.2557694724747446 0.3757454935055287 -0.07563890372701673 2.3385099019461153 5.005701720788236 -0.462020030874499 1.045141839472263 -0.287160127943026 8.954741775366932" Properties=species:S:1:pos:R:3:initial_magmoms:R:1:castep_labels:S:1 n_minim_iter=29 pbc="T T T"
P        4.91813871       4.08486227       5.78412947       0.00000000 NULL
P        4.00462338       1.31036921       3.75725340       0.00000000 NULL
P        3.40269708       2.52401460       5.56725599       0.00000000 NULL
P        2.35751808       3.41754996       0.35110715       0.00000000 NULL
P        5.04103674       2.77305300       7.96586012       0.00000000 NULL
P        4.97203539       4.60781798       3.48863599       0.00000000 NULL
6
Lattice="3.250279198064309 0.335706510287071 -0.024690710779853853 2.2398260340361764 4.658707565513116 -0.3385035276078464 1.1774945198402085 -0.19371342345173728 9.037538206000704" Properties=species:S:1:pos:R:3:initial_magmoms:R:1:castep_labels:S:1 n_minim_iter=30 pbc="T T T"
P        4.90614645       3.86249102       5.95656883       0.00000000 NULL
P        4.04355950       1.23314474       3.84125129       0.00000000 NULL
P        3.48317391       2.37244140       5.72926878       0.00000000 NULL
P        2.29322581       3.18824912       0.43951741       0.00000000 NULL
P        5.11307545       2.62821814       8.18487226       0.00000000 NULL
P        4.90414320       4.31768762       3.67894980       0.00000000 NULL
6
Lattice="3.324078777769177 0.40669796077239034 -0.02401176331963853 2.443037742878628 4.807402952392477 -0.3534567425301818 1.2088913288069294 -0.18251413617340362 9.125170293398876" Properties=species:S:1:pos:R:3:initial_magmoms:R:1:castep_labels:S:1 n_minim_iter=31 pbc="T T T"
P        5.15543381       4.04827296       6.00325411       0.00000000 NULL
P        4.17787586       1.34133382       3.86927538       0.00000000 NULL
P        3.63394688       2.48023298       5.78425840       0.00000000 NULL
P        2.44557951       3.30532279       0.43625600       0.00000000 NULL
P        5.31791570       2.77867338       8.26278830       0.00000000 NULL
P        5.14221488       4.50400244       3.70572847       0.00000000 NULL
6
Lattice="3.2837068615721106 0.3969774893901739 -0.022395823797925762 2.401871591272194 4.761716039778885 -0.3608252968726369 1.197622716199586 -0.19550820952458187 9.096987694864247" Properties=species:S:1:pos:R:3:initial_magmoms:R:1:castep_labels:S:1 n_minim_iter=32 pbc="T T T"
P        5.08383232       3.99716807       5.97529886       0.00000000 NULL
P        4.12319143       1.31653078       3.85404096       0.00000000 NULL
P        3.59173499       2.44220300       5.76634329       0.00000000 NULL
P        2.40529699       3.27176118       0.42697727       0.00000000 NULL
P        5.25330519       2.73303357       8.23844717       0.00000000 NULL
P        5.07067735       4.45112123       3.68917039       0.00000000 NULL
6
Lattice="3.283830468155205 0.3978521777685288 -0.022459385970725058 2.4040290472106616 4.751987248302576 -0.3660384823619829 1.197519806848272 -0.2009940758852152 9.114954199803755" Properties=species:S:1:pos:R:3:initial_magmoms:R:1:castep_labels:S:1 n_minim_iter=33 pbc="T T T"
P        5.08464153       3.98860237       5.98022679       0.00000000 NULL
P        4.12157780       1.31341030       3.85681493       0.00000000 NULL
P        3.59710984       2.43140800       5.77918159       0.00000000 NULL
P        2.40366316       3.26533298       0.42417838       0.00000000 NULL
P        5.25741613       2.72277546       8.25529452       0.00000000 NULL
P        5.07161322       4.44074104       3.69337770       0.00000000 NULL
6
Lattice="3.282798737777791 0.40280100201928315 -0.019174751272595596 2.4154724853119136 4.7382010906678484 -0.37234443607555545 1.2059575868363221 -0.20782080014768498 9.140164592413775" Properties=species:S:1:pos:R:3:initial_magmoms:R:1:castep_labels:S:1 n_minim_iter=34 pbc="T T T"
P        5.09804186       3.98087028       5.98854130       0.00000000 NULL
P        4.12277437       1.31317845       3.86293788       0.00000000 NULL
P        3.61511348       2.41736310       5.80082957       0.00000000 NULL
P        2.40677593       3.25735620       0.42147507       0.00000000 NULL
P        5.27523577       2.71196198       8.28356968       0.00000000 NULL
P        5.08275307       4.42901204       3.70312491       0.00000000 NULL
6
Lattice="3.2842522596105486 0.41823474355230766 -0.005673779951513994 2.4532197862729404 4.712192903855738 -0.3794474542320688 1.242698784220332 -0.2166671289707293 9.193232370521583" Properties=species:S:1:pos:R:3:initial_magmoms:R:1:castep_labels:S:1 n_minim_iter=35 pbc="T T T"
P        5.15337448       3.97518049       6.01292089       0.00000000 NULL
P        4.13785643       1.32069730       3.88332608       0.00000000 NULL
P        3.67531890       2.39473292       5.85405855       0.00000000 NULL
P        2.42478288       3.24436939       0.42223969       0.00000000 NULL
P        5.34077308       2.69998646       8.35235215       0.00000000 NULL
P        5.12981081       4.41273486       3.73425342       0.00000000 NULL
6
Lattice="3.284330890546158 0.4436024708038915 0.024541603623811324 2.5142448446160923 4.639957790189029 -0.3890733254880412 1.3235210111196218 -0.2331161676973683 9.312209793425117" Properties=species:S:1:pos:R:3:initial_magmoms:R:1:castep_labels:S:1 n_minim_iter=36 pbc="T T T"
P        5.25216317       3.94289717       6.06859966       0.00000000 NULL
P        4.15818703       1.32667309       3.93849436       0.00000000 NULL
P        3.79670459       2.33958172       5.97402122       0.00000000 NULL
P        2.45010285       3.20339227       0.43300981       0.00000000 NULL
P        5.46915031       2.66194150       8.50601418       0.00000000 NULL
P        5.21807772       4.35809760       3.80707625       0.00000000 NULL
