14
Lattice="5.520510000000001 -1.3369500550710534e-15 1.3277202691855782e-15 1.4068709109204371 5.468755832216856 -1.2112105295585407e-15 2.4963481621937773 1.0986031234486642 10.213480342525779" Properties=species:S:1:pos:R:3:initial_magmoms:R:1:castep_labels:S:1 n_minim_iter=1 pbc="T T T"
P        3.79060499       4.94848877       8.20348988       0.00000000 NULL
P        5.63312408       1.61887019       2.00999046       0.00000000 NULL
P        7.01185330       5.11221305       0.95220584       0.00000000 NULL
P        2.41187577       1.45514591       9.26127450       0.00000000 NULL
P        6.91477420       2.90037797       5.87936647       0.00000000 NULL
P        2.50895487       3.66698099       4.33411387       0.00000000 NULL
P        4.73739413       5.72655647       2.46812531       0.00000000 NULL
P        4.68633494       0.84080249       7.74535503       0.00000000 NULL
P        5.04303986       5.17590228       6.45484195       0.00000000 NULL
P        4.38068921       1.39145668       3.75863839       0.00000000 NULL
P        3.96177678       3.47844741       6.61790119       0.00000000 NULL
P        5.46195229       3.08891155       3.59557915       0.00000000 NULL
P        2.52474665       3.00698790       7.95503982       0.00000000 NULL
P        6.89898242       3.56037106       2.25844052       0.00000000 NULL
14
Lattice="5.529397436384079 0.007131715905751387 -0.0023219546093405418 1.4162006809371057 5.482272497590999 -0.0010567935900245285 2.4974904159157867 1.103309726144225 10.233633361368046" Properties=species:S:1:pos:R:3:initial_magmoms:R:1:castep_labels:S:1 n_minim_iter=2 pbc="T T T"
P        3.79960584       4.96331887       8.21869912       0.00000000 NULL
P        5.64348269       1.62939507       2.01155549       0.00000000 NULL
P        7.02935836       5.13222693       0.95086407       0.00000000 NULL
P        2.41373018       1.46048701       9.27939054       0.00000000 NULL
P        6.92702949       2.91496037       5.88853786       0.00000000 NULL
P        2.51605904       3.67775357       4.34171675       0.00000000 NULL
P        4.75122147       5.74459399       2.47064760       0.00000000 NULL
P        4.69186706       0.84811995       7.75960701       0.00000000 NULL
P        5.05521860       5.19307657       6.46550167       0.00000000 NULL
P        4.38786993       1.39963737       3.76475294       0.00000000 NULL
P        3.96999743       3.49010500       6.62950205       0.00000000 NULL
P        5.47309110       3.10260894       3.60075257       0.00000000 NULL
P        2.52908903       3.01617884       7.97033413       0.00000000 NULL
P        6.91399951       3.57653510       2.25992049       0.00000000 NULL
14
Lattice="5.697472495152774 0.14651169445775408 -0.04711816981789947 1.5971069706881305 5.741171659072563 -0.021614861273321302 2.5183529594849694 1.194137000356389 10.610700601215832" Properties=species:S:1:pos:R:3:initial_magmoms:R:1:castep_labels:S:1 n_minim_iter=3 pbc="T T T"
P        3.97257978       5.24831882       8.50259282       0.00000000 NULL
P        5.84035264       1.83350153       2.03937475       0.00000000 NULL
P        7.36445816       5.51848903       0.92380374       0.00000000 NULL
P        2.44847426       1.56333132       9.61816383       0.00000000 NULL
P        7.16013337       3.19706519       6.05861743       0.00000000 NULL
P        2.65279906       3.88475516       4.48335014       0.00000000 NULL
P        5.01694763       6.09151257       2.51629644       0.00000000 NULL
P        4.79598480       0.99030779       8.02567113       0.00000000 NULL
P        5.28888664       5.52377579       6.66355505       0.00000000 NULL
P        4.52404579       1.55804457       3.87841252       0.00000000 NULL
P        4.12720892       3.71450720       6.84551641       0.00000000 NULL
P        5.68572351       3.36731316       3.69645116       0.00000000 NULL
P        2.61230495       3.19275870       8.25620499       0.00000000 NULL
P        7.20062748       3.88906165       2.28576258       0.00000000 NULL
14
Lattice="5.714638264673922 0.22439709496854465 -0.06673236835290772 1.678636803998968 5.820609072285528 -0.024127160945993178 2.5053265634268636 1.2459703940729139 10.603991035917756" Properties=species:S:1:pos:R:3:initial_magmoms:R:1:castep_labels:S:1 n_minim_iter=4 pbc="T T T"
P        4.02560276       5.36065696       8.49328258       0.00000000 NULL
P        5.87299887       1.93031960       2.01984892       0.00000000 NULL
P        7.45485492       5.67541984       0.90331533       0.00000000 NULL
P        2.44374671       1.61555672       9.60981618       0.00000000 NULL
P        7.20068008       3.32912992       6.03580149       0.00000000 NULL
P        2.69792155       3.96184664       4.47733002       0.00000000 NULL
P        5.10355432       6.22097351       2.50116153       0.00000000 NULL
P        4.79504731       1.07000305       8.01196998       0.00000000 NULL
P        5.35592595       5.65663182       6.64775427       0.00000000 NULL
P        4.54267568       1.63434474       3.86537724       0.00000000 NULL
P        4.16637140       3.80624929       6.83131473       0.00000000 NULL
P        5.73223023       3.48472727       3.68181677       0.00000000 NULL
P        2.63090539       3.26718029       8.24939068       0.00000000 NULL
P        7.26769624       4.02379627       2.26374082       0.00000000 NULL
14
Lattice="5.704643226361453 0.2997532481703313 -0.07686263700288154 1.7507393223641825 5.870881603528587 -0.026675344422228655 2.497061042675183 1.2863498249157386 10.513882215186072" Properties=species:S:1:pos:R:3:initial_magmoms:R:1:castep_labels:S:1 n_minim_iter=5 pbc="T T T"
P        4.07221637       5.44190013       8.41766695       0.00000000 NULL
P        5.88022722       2.01508454       1.99267728       0.00000000 NULL
P        7.50996811       5.80216521       0.88489275       0.00000000 NULL
P        2.44247548       1.65481946       9.52545148       0.00000000 NULL
P        7.21617606       3.44052709       5.97317646       0.00000000 NULL
P        2.73626754       4.01645759       4.43716777       0.00000000 NULL
P        5.16902458       6.31758255       2.47083154       0.00000000 NULL
P        4.78341901       1.13940213       7.93951270       0.00000000 NULL
P        5.40672277       5.75712015       6.58403937       0.00000000 NULL
P        4.54572082       1.69986452       3.82630486       0.00000000 NULL
P        4.19561075       3.87549749       6.76633256       0.00000000 NULL
P        5.75683284       3.58148719       3.64401168       0.00000000 NULL
P        2.64971966       3.32102561       8.17725744       0.00000000 NULL
P        7.30272393       4.13595906       2.23308679       0.00000000 NULL
14
Lattice="5.6552148695731095 0.6124094132810033 -0.08634831603518592 2.0478678320648154 6.064063367455969 -0.049104829317892236 2.519380150075636 1.4131580265638914 10.130506092907314" Properties=species:S:1:pos:R:3:initial_magmoms:R:1:castep_labels:S:1 n_minim_iter=6 pbc="T T T"
P        4.30921078       5.73498687       8.09078744       0.00000000 NULL
P        5.91325207       2.35464394       1.90426551       0.00000000 NULL
P        7.73450202       6.30967145       0.82931169       0.00000000 NULL
P        2.48796083       1.77995936       9.16574126       0.00000000 NULL
P        7.30488210       3.87237904       5.73245167       0.00000000 NULL
P        2.91758075       4.21725177       4.26260127       0.00000000 NULL
P        5.44855450       6.69376746       2.34773652       0.00000000 NULL
P        4.77390836       1.39586335       7.64731642       0.00000000 NULL
P        5.64819657       6.13464050       6.31901011       0.00000000 NULL
P        4.57426628       1.95499031       3.67604284       0.00000000 NULL
P        4.34901667       4.13160154       6.49625582       0.00000000 NULL
P        5.87344619       3.95802926       3.49879713       0.00000000 NULL
P        2.77317158       3.50474656       7.86585183       0.00000000 NULL
P        7.44929127       4.58488425       2.12920111       0.00000000 NULL
14
Lattice="5.592257472258012 1.0184571932250444 -0.007782348809216321 2.4340646207343046 6.276895957933656 -0.11822327235248062 2.7170708956925833 1.452259237198406 9.779998900851524" Properties=species:S:1:pos:R:3:initial_magmoms:R:1:castep_labels:S:1 n_minim_iter=7 pbc="T T T"
P        4.75400273       5.98680190       7.76468682       0.00000000 NULL
P        5.98939025       2.76081049       1.88930646       0.00000000 NULL
P        8.04401536       6.91788255       0.82512555       0.00000000 NULL
P        2.69937763       1.82972983       8.82886773       0.00000000 NULL
P        7.51776643       4.34419166       5.57003535       0.00000000 NULL
P        3.22562656       4.40342073       4.08395793       0.00000000 NULL
P        5.85387919       7.11587276       2.23137630       0.00000000 NULL
P        4.88951380       1.63173963       7.42261698       0.00000000 NULL
P        6.06894933       6.50978241       6.07522532       0.00000000 NULL
P        4.67444366       2.23782997       3.57876796       0.00000000 NULL
P        4.65441344       4.37447891       6.25500736       0.00000000 NULL
P        6.08897955       4.37313348       3.39898592       0.00000000 NULL
P        3.07150621       3.62273952       7.56050191       0.00000000 NULL
P        7.67188678       5.12487287       2.09349137       0.00000000 NULL
14
Lattice="5.519058634042472 1.4907148532035124 0.0584278513883059 2.883240605583118 6.57612754847657 -0.24410199026176319 2.900447165867429 1.435141971451133 9.776793201468099" Properties=species:S:1:pos:R:3:initial_magmoms:R:1:castep_labels:S:1 n_minim_iter=8 pbc="T T T"
P        5.23310171       6.26753119       7.67380013       0.00000000 NULL
P        6.06964469       3.23445319       1.91731893       0.00000000 NULL
P        8.39979843       7.66023985       0.79066754       0.00000000 NULL
P        2.90294798       1.84174453       8.80045152       0.00000000 NULL
P        7.74073821       4.88161158       5.57310600       0.00000000 NULL
P        3.56200820       4.62037279       4.01801307       0.00000000 NULL
P        6.31748684       7.64708923       2.13597098       0.00000000 NULL
P        4.98525956       1.85489514       7.45514808       0.00000000 NULL
P        6.53093915       6.94696477       5.99709183       0.00000000 NULL
P        4.77180725       2.55501960       3.59402723       0.00000000 NULL
P        4.97499406       4.64789792       6.20885348       0.00000000 NULL
P        6.32775234       4.85408645       3.38226559       0.00000000 NULL
P        3.38639220       3.72505730       7.50239679       0.00000000 NULL
P        7.91635421       5.77692707       2.08872227       0.00000000 NULL
14
Lattice="5.301222436032074 1.6581344823186357 0.13818189329209304 2.9935763649286407 6.55011743072376 -0.3177214679966126 2.9828125766956433 1.321601170797311 9.63383435800037" Properties=species:S:1:pos:R:3:initial_magmoms:R:1:castep_labels:S:1 n_minim_iter=9 pbc="T T T"
P        5.35786620       6.18590840       7.51060017       0.00000000 NULL
P        5.91974518       3.34394469       1.94369461       0.00000000 NULL
P        8.29375123       7.79318117       0.79441080       0.00000000 NULL
P        2.98386015       1.73667191       8.65988399       0.00000000 NULL
P        7.64402712       4.96418868       5.52814736       0.00000000 NULL
P        3.63358425       4.56566440       3.92614742       0.00000000 NULL
P        6.35114475       7.68532972       2.06539752       0.00000000 NULL
P        4.92646663       1.84452336       7.38889726       0.00000000 NULL
P        6.58446417       6.92332091       5.88102575       0.00000000 NULL
P        4.69314721       2.60653217       3.57326904       0.00000000 NULL
P        5.01543406       4.60845026       6.10530420       0.00000000 NULL
P        6.26217732       4.92140282       3.34899058       0.00000000 NULL
P        3.49637375       3.62649219       7.35654569       0.00000000 NULL
P        7.78123763       5.90336089       2.09774909       0.00000000 NULL
14
Lattice="5.366722741221577 1.787898516830571 0.1200187265044327 3.1388162602602345 6.793440475334009 -0.3732786239584303 3.0046514273027696 1.3274029362496127 9.8654187201907" Properties=species:S:1:pos:R:3:initial_magmoms:R:1:castep_labels:S:1 n_minim_iter=10 pbc="T T T"
P        5.49425413       6.39280103       7.65290634       0.00000000 NULL
P        6.01593630       3.51594090       1.95925248       0.00000000 NULL
P        8.49542138       8.14700533       0.75041832       0.00000000 NULL
P        3.01476905       1.76173660       8.86174050       0.00000000 NULL
P        7.77545602       5.18651162       5.62062854       0.00000000 NULL
P        3.73473441       4.72223031       3.99153028       0.00000000 NULL
P        6.53797270       7.99877653       2.05461569       0.00000000 NULL
P        4.97221773       1.90996540       7.55754313       0.00000000 NULL
P        6.74593220       7.18295608       5.97195311       0.00000000 NULL
P        4.76425823       2.72578585       3.64020571       0.00000000 NULL
P        5.12050621       4.76945528       6.22030231       0.00000000 NULL
P        6.38968422       5.13928665       3.39185652       0.00000000 NULL
P        3.57127101       3.72861101       7.51263290       0.00000000 NULL
P        7.93891942       6.18013091       2.09952592       0.00000000 NULL
14
Lattice="5.294572628628587 1.7749632101932293 0.1407951514737451 3.10761517046211 6.7616902246088655 -0.3811231480698842 3.0078897220914795 1.2912986614568283 9.802690227191048" Properties=species:S:1:pos:R:3:initial_magmoms:R:1:castep_labels:S:1 n_minim_iter=11 pbc="T T T"
P        5.46502609       6.34040987       7.59824984       0.00000000 NULL
P        5.94505143       3.48754223       1.96411239       0.00000000 NULL
P        8.39652311       8.10290268       0.75826331       0.00000000 NULL
P        3.01355441       1.72504941       8.80409893       0.00000000 NULL
P        7.70193490       5.14440066       5.59862822       0.00000000 NULL
P        3.70814262       4.68355143       3.96373401       0.00000000 NULL
P        6.47530963       7.95577709       2.04095167       0.00000000 NULL
P        4.93476790       1.87217500       7.52141056       0.00000000 NULL
P        6.69100475       7.12759366       5.93505814       0.00000000 NULL
P        4.71907277       2.70035843       3.62730409       0.00000000 NULL
P        5.08482512       4.72517126       6.18270523       0.00000000 NULL
P        6.32525241       5.10278084       3.37965701       0.00000000 NULL
P        3.56298720       3.68969283       7.45879296       0.00000000 NULL
P        7.84709032       6.13825927       2.10356927       0.00000000 NULL
14
Lattice="5.271065287679543 1.7862531195277613 0.1433217304063621 3.1128085245804957 6.796399022038363 -0.40004434070520983 3.004180968107569 1.2662586191021474 9.815192802471854" Properties=species:S:1:pos:R:3:initial_magmoms:R:1:castep_labels:S:1 n_minim_iter=12 pbc="T T T"
P        5.46367252       6.34962728       7.59381746       0.00000000 NULL
P        5.92438226       3.49928348       1.96465273       0.00000000 NULL
P        8.37891936       8.14509982       0.74518776       0.00000000 NULL
P        3.00913542       1.70381094       8.81328244       0.00000000 NULL
P        7.68217681       5.15709496       5.59914423       0.00000000 NULL
P        3.70587797       4.69181580       3.95932596       0.00000000 NULL
P        6.47091792       7.99360108       2.02511403       0.00000000 NULL
P        4.91713686       1.85530968       7.53335616       0.00000000 NULL
P        6.68228642       7.14468354       5.92817879       0.00000000 NULL
P        4.70576836       2.70422722       3.63029140       0.00000000 NULL
P        5.07745425       4.72817586       6.18218249       0.00000000 NULL
P        6.31060053       5.12073490       3.37628770       0.00000000 NULL
P        3.56335164       3.68569431       7.45919373       0.00000000 NULL
P        7.82470314       6.16321646       2.09927647       0.00000000 NULL
14
Lattice="5.1701196918585985 1.8236747881540873 0.1441535371727075 3.124153952123507 6.945660802149562 -0.4918744608913709 2.967519835618947 1.1393511336029853 9.862476054287352" Properties=species:S:1:pos:R:3:initial_magmoms:R:1:castep_labels:S:1 n_minim_iter=13 pbc="T T T"
P        5.43310740       6.37333434       7.55986862       0.00000000 NULL
P        5.82868608       3.53535238       1.95488651       0.00000000 NULL
P        8.29291167       8.31572481       0.66808752       0.00000000 NULL
P        2.96888181       1.59296191       8.84666761       0.00000000 NULL
P        7.58118488       5.19210695       5.58362656       0.00000000 NULL
P        3.68060860       4.71657977       3.93112857       0.00000000 NULL
P        6.43682074       8.14782915       1.93914355       0.00000000 NULL
P        4.82497274       1.76085757       7.57561158       0.00000000 NULL
P        6.62169038       7.20057137       5.88145887       0.00000000 NULL
P        4.64010310       2.70811535       3.63329626       0.00000000 NULL
P        5.02686124       4.72420186       6.16793115       0.00000000 NULL
P        6.23493224       5.18448487       3.34682398       0.00000000 NULL
P        3.54522646       3.65508525       7.45048427       0.00000000 NULL
P        7.71656702       6.25360147       2.06427086       0.00000000 NULL
