7
Lattice="4.919039999999998 3.795603510915389e-16 1.2643835276736e-15 2.3646502918477394 5.101038903808163 1.6258817232048811e-15 0.9430635690888942 1.2097998592416819 6.398405980346677" Properties=species:S:1:pos:R:3:initial_magmoms:R:1:castep_labels:S:1 n_minim_iter=1 pbc="T T T"
P        4.83443443       1.82056083       1.63360710       0.00000000 NULL
P        2.42735884       0.46306174       2.08934637       0.00000000 NULL
P        5.75361365       5.78379301       6.20260836       0.00000000 NULL
P        4.02169811       4.18735024       5.90833991       0.00000000 NULL
P        1.12369848       1.35275311       5.47999606       0.00000000 NULL
P        4.38304269       4.07741696       3.41279458       0.00000000 NULL
P        3.18263952       3.75799272       1.76914774       0.00000000 NULL
7
Lattice="4.916387023226445 0.0009030959517293704 0.000464997267310668 2.364311478843941 5.099182123098132 -0.0006720569041939905 0.9433818996791108 1.2083063029634562 6.400815643202372" Properties=species:S:1:pos:R:3:initial_magmoms:R:1:castep_labels:S:1 n_minim_iter=2 pbc="T T T"
P        4.83223848       1.82031383       1.63439878       0.00000000 NULL
P        2.42638744       0.46313108       2.09013842       0.00000000 NULL
P        5.75205477       5.78118427       6.20455428       0.00000000 NULL
P        4.02087405       4.18530538       5.91027485       0.00000000 NULL
P        1.12393982       1.35128210       5.48212258       0.00000000 NULL
P        4.38188899       4.07562449       3.41407454       0.00000000 NULL
P        3.18166856       3.75652860       1.76943270       0.00000000 NULL
7
Lattice="4.3071094109809325 0.1959404468226988 0.10922205977591404 2.2736768490942048 4.664591311671442 -0.16758801298918194 1.0160059237204575 0.8454452022965421 7.036546951613641" Properties=species:S:1:pos:R:3:initial_magmoms:R:1:castep_labels:S:1 n_minim_iter=3 pbc="T T T"
P        4.32470262       1.74569208       1.83535039       0.00000000 NULL
P        2.20318215       0.46803589       2.28984746       0.00000000 NULL
P        5.38340266       5.14786534       6.71843339       0.00000000 NULL
P        3.82428372       3.68768864       6.42027532       0.00000000 NULL
P        1.17650918       0.99629785       6.04575937       0.00000000 NULL
P        4.10582586       3.64247612       3.75689001       0.00000000 NULL
P        2.95064376       3.40581721       1.84731343       0.00000000 NULL
7
Lattice="4.5353379589761795 0.0997178468188368 0.12213882786419383 2.283606729025996 4.981027511650758 -0.41303968975090266 1.0528974040260934 0.5973494767372053 7.101463130752728" Properties=species:S:1:pos:R:3:initial_magmoms:R:1:castep_labels:S:1 n_minim_iter=4 pbc="T T T"
P        4.51846715       1.69018374       1.79692693       0.00000000 NULL
P        2.31565332       0.36006256       2.30758057       0.00000000 NULL
P        5.56400632       5.15038813       6.56235003       0.00000000 NULL
P        3.94186916       3.59874001       6.34052506       0.00000000 NULL
P        1.21223219       0.81604032       6.07499143       0.00000000 NULL
P        4.24275921       3.66956779       3.63557869       0.00000000 NULL
P        3.01731765       3.52309502       1.71130203       0.00000000 NULL
7
Lattice="4.41586943478501 0.10129103110266331 0.09357124701920116 2.227807953988502 4.758874376482313 -0.4593836005462841 0.9932210942552829 0.5038790709521357 6.847343785012421" Properties=species:S:1:pos:R:3:initial_magmoms:R:1:castep_labels:S:1 n_minim_iter=5 pbc="T T T"
P        4.38921151       1.60426602       1.69718749       0.00000000 NULL
P        2.24329602       0.32311106       2.21088521       0.00000000 NULL
P        5.38883025       4.86068413       6.25735931       0.00000000 NULL
P        3.81222333       3.38489222       6.06570405       0.00000000 NULL
P        1.15602261       0.71674031       5.86044308       0.00000000 NULL
P        4.11706787       3.47367810       3.44713654       0.00000000 NULL
P        2.93381710       3.34651413       1.60644364       0.00000000 NULL
7
Lattice="4.441535894542031 0.11321985985513774 0.09162747187048682 2.252516356664282 4.719387816012129 -0.5386021899626677 0.9985472424374505 0.3972465936721421 6.8241981193773915" Properties=species:S:1:pos:R:3:initial_magmoms:R:1:castep_labels:S:1 n_minim_iter=6 pbc="T T T"
P        4.41640605       1.57453760       1.66820107       0.00000000 NULL
P        2.25726167       0.29413261       2.19798272       0.00000000 NULL
P        5.43385497       4.73217179       6.15827236       0.00000000 NULL
P        3.83925837       3.26634746       5.99406668       0.00000000 NULL
P        1.16349652       0.62245108       5.83899986       0.00000000 NULL
P        4.15117721       3.39523182       3.38170370       0.00000000 NULL
P        2.95477885       3.29068463       1.54926913       0.00000000 NULL
7
Lattice="4.455609672857169 0.11705415839498784 0.08956534801579405 2.2632579790175904 4.705080093835544 -0.5769803243753889 0.9995061482073075 0.3472556381199202 6.813125768245213" Properties=species:S:1:pos:R:3:initial_magmoms:R:1:castep_labels:S:1 n_minim_iter=7 pbc="T T T"
P        4.43021801       1.56042874       1.65330146       0.00000000 NULL
P        2.26404124       0.27992858       2.19113597       0.00000000 NULL
P        5.45374405       4.67471314       6.10961921       0.00000000 NULL
P        3.85075610       3.21263282       5.95928527       0.00000000 NULL
P        1.16579044       0.57846540       5.82876126       0.00000000 NULL
P        4.16684322       3.36039813       3.34977241       0.00000000 NULL
P        2.96405315       3.26695593       1.52117876       0.00000000 NULL
7
Lattice="4.660257205898215 0.1659928868997955 0.04829438533325195 2.4123842733224454 4.544593037435691 -1.1002663883343933 0.9970937517496389 -0.31849381292522505 6.686162608341266" Properties=species:S:1:pos:R:3:initial_magmoms:R:1:castep_labels:S:1 n_minim_iter=8 pbc="T T T"
P        4.62466696       1.37846257       1.44641512       0.00000000 NULL
P        2.35650427       0.09298872       2.09730034       0.00000000 NULL
P        5.72062913       3.93826203       5.45755111       0.00000000 NULL
P        3.99871413       2.51562278       5.50305917       0.00000000 NULL
P        1.18526199      -0.00840600       5.71160238       0.00000000 NULL
P        4.38220944       2.91481645       2.92310348       0.00000000 NULL
P        3.08879397       2.96919785       1.14331907       0.00000000 NULL
7
Lattice="4.626879426746488 0.08648870346969842 -0.01875895220542958 2.313893366986087 4.614397243201808 -0.9860750921967709 0.8839220773238048 -0.12445105881302473 6.944435946183795" Properties=species:S:1:pos:R:3:initial_magmoms:R:1:castep_labels:S:1 n_minim_iter=9 pbc="T T T"
P        4.53465169       1.37831579       1.49530679       0.00000000 NULL
P        2.29955171       0.12963282       2.13883643       0.00000000 NULL
P        5.49916904       4.14644166       5.75979140       0.00000000 NULL
P        3.82355723       2.71226132       5.76741918       0.00000000 NULL
P        1.08764638       0.15375307       5.95604487       0.00000000 NULL
P        4.25082142       3.03141679       3.13283742       0.00000000 NULL
P        2.97907003       3.04796732       1.27588365       0.00000000 NULL
7
Lattice="4.564631839247187 0.10472510595250478 -0.03494703971789706 2.302881222865133 4.531006917307551 -0.9999258260903502 0.8554167204192793 -0.15042384142040244 6.6916289518803085" Properties=species:S:1:pos:R:3:initial_magmoms:R:1:castep_labels:S:1 n_minim_iter=10 pbc="T T T"
P        4.47132250       1.36293636       1.41499223       0.00000000 NULL
P        2.26218613       0.12856233       2.04496975       0.00000000 NULL
P        5.42453482       4.05608134       5.49438524       0.00000000 NULL
P        3.76876956       2.64593013       5.51702253       0.00000000 NULL
P        1.06349454       0.12327545       5.74393580       0.00000000 NULL
P        4.20099621       2.97156995       2.97818900       0.00000000 NULL
P        2.94991035       2.98789212       1.19438705       0.00000000 NULL
7
Lattice="4.61549952543681 0.10886443885552988 -0.03180945366822114 2.331626503889085 4.573648072056095 -1.0165362638339777 0.8702681498438857 -0.16271601796934704 6.726904761171799" Properties=species:S:1:pos:R:3:initial_magmoms:R:1:castep_labels:S:1 n_minim_iter=11 pbc="T T T"
P        4.52222418       1.37434819       1.42389394       0.00000000 NULL
P        2.28904269       0.12988491       2.05303598       0.00000000 NULL
P        5.49400721       4.08717251       5.51117111       0.00000000 NULL
P        3.81537884       2.65975346       5.53779885       0.00000000 NULL
P        1.08101267       0.11551157       5.77589949       0.00000000 NULL
P        4.25659504       2.99518047       2.99354538       0.00000000 NULL
P        2.98393481       3.01281636       1.19416282       0.00000000 NULL
7
Lattice="4.619036228767434 0.11112994918851231 -0.0330475043817664 2.3356759775482683 4.56995233848952 -1.0221627804085187 0.8698929951507383 -0.16972749449119867 6.716296306797686" Properties=species:S:1:pos:R:3:initial_magmoms:R:1:castep_labels:S:1 n_minim_iter=12 pbc="T T T"
P        4.52421397       1.37262335       1.42031583       0.00000000 NULL
P        2.28986059       0.13049996       2.04496910       0.00000000 NULL
P        5.49853604       4.07903214       5.49256977       0.00000000 NULL
P        3.81781893       2.65143435       5.52103517       0.00000000 NULL
P        1.08256180       0.10852131       5.76960470       0.00000000 NULL
P        4.26403448       2.99025601       2.98736350       0.00000000 NULL
P        2.98687363       3.00790142       1.18801902       0.00000000 NULL
7
Lattice="4.6279148812963165 0.11172297557570668 -0.034933283820396614 2.3405590358209585 4.568156435688323 -1.031983034255656 0.8692881199199196 -0.1812881397359006 6.703420345809594" Properties=species:S:1:pos:R:3:initial_magmoms:R:1:castep_labels:S:1 n_minim_iter=13 pbc="T T T"
P        4.52898081       1.36820585       1.41615527       0.00000000 NULL
P        2.29226411       0.13086167       2.03236442       0.00000000 NULL
P        5.50581199       4.06785018       5.46513625       0.00000000 NULL
P        3.82166550       2.63889878       5.49666950       0.00000000 NULL
P        1.08539767       0.09728103       5.76352810       0.00000000 NULL
P        4.27729230       2.98357234       2.98050072       0.00000000 NULL
P        2.99134982       3.00165277       1.17912212       0.00000000 NULL
7
Lattice="4.641882651015502 0.10501525564426346 -0.03831898658761493 2.340317637177481 4.563704878986821 -1.048500313177883 0.8659123383245773 -0.20154182965785641 6.679033264249042" Properties=species:S:1:pos:R:3:initial_magmoms:R:1:castep_labels:S:1 n_minim_iter=14 pbc="T T T"
P        4.53079800       1.35282423       1.41088471       0.00000000 NULL
P        2.29390153       0.13061517       2.00600529       0.00000000 NULL
P        5.50594186       4.04293557       5.41274775       0.00000000 NULL
P        3.81985889       2.61261106       5.44930886       0.00000000 NULL
P        1.08910155       0.07730362       5.75342281       0.00000000 NULL
P        4.29560790       2.96771808       2.97208761       0.00000000 NULL
P        2.99312688       2.98673522       1.16504536       0.00000000 NULL
