13
Lattice="3.52418 7.913969473231273e-16 -7.720124937205554e-17 -1.7499183704195869 8.101585757940727 -1.2722323192551472e-15 -1.477426434242054 -2.472936952630488 9.610132989080714" Properties=species:S:1:pos:R:3:initial_magmoms:R:1:castep_labels:S:1 n_minim_iter=1 pbc="T T T"
P       -0.24241369       5.90928179       0.05514487       0.00000000 NULL
P        1.47782089       6.96946116       0.14296803       0.00000000 NULL
P       -0.38335426       0.86992119       1.75515721       0.00000000 NULL
P        0.07551778       0.33190432       4.83179708       0.00000000 NULL
P        2.19702720       1.59627572       4.16806363       0.00000000 NULL
P       -0.57219759       7.72651148       1.31202533       0.00000000 NULL
P       -0.01446354       5.78504924       7.29841646       0.00000000 NULL
P       -2.30899799       6.23259502       5.59159918       0.00000000 NULL
P       -0.81047744       4.72302521       1.62532623       0.00000000 NULL
P       -2.05755925       4.63201209       8.05929682       0.00000000 NULL
P       -1.56598987       0.28360768       8.11517013       0.00000000 NULL
P       -1.24095427       4.56793997       6.21829709       0.00000000 NULL
P        0.08144643      -1.18844020       7.41050521       0.00000000 NULL
13
Lattice="3.538014222281861 -0.0022071851312469755 0.000670855434986965 -1.761861704567092 8.13016266554641 -0.0023482337235069396 -1.479847935435914 -2.4827903027532976 9.642825334549658" Properties=species:S:1:pos:R:3:initial_magmoms:R:1:castep_labels:S:1 n_minim_iter=2 pbc="T T T"
P       -0.24697169       5.92895770       0.05393458       0.00000000 NULL
P        1.47914702       6.99223122       0.14178874       0.00000000 NULL
P       -0.38526894       0.87285441       1.76091704       0.00000000 NULL
P        0.07675100       0.33176649       4.84801151       0.00000000 NULL
P        2.20529849       1.59932940       4.18203931       0.00000000 NULL
P       -0.57874708       7.75290852       1.31480978       0.00000000 NULL
P       -0.01676242       5.80282328       7.32163672       0.00000000 NULL
P       -2.32115756       6.25399331       5.60791829       0.00000000 NULL
P       -0.81635328       4.73897426       1.62960745       0.00000000 NULL
P       -2.06710902       4.64689458       8.08502899       0.00000000 NULL
P       -1.57080635       0.28349432       8.14207451       0.00000000 NULL
P       -1.24720434       4.58208190       6.23737080       0.00000000 NULL
P        0.08396362      -1.19357136       7.43608442       0.00000000 NULL
13
Lattice="3.7827272722897107 -0.04223207694010836 0.013310453852132463 -1.9753845538914525 8.637421557866885 -0.04490943967224815 -1.5198851279712184 -2.657822162921407 10.217567204744144" Properties=species:S:1:pos:R:3:initial_magmoms:R:1:castep_labels:S:1 n_minim_iter=3 pbc="T T T"
P       -0.32919959       6.27748364       0.03225409       0.00000000 NULL
P        1.50066574       7.39573454       0.12045333       0.00000000 NULL
P       -0.41918856       0.92497925       1.86207301       0.00000000 NULL
P        0.09967312       0.32908901       5.13301850       0.00000000 NULL
P        2.35204785       1.65246831       4.42809320       0.00000000 NULL
P       -0.69626522       8.22124247       1.36322936       0.00000000 NULL
P       -0.05748912       6.11749379       7.72918158       0.00000000 NULL
P       -2.53700647       6.63392005       5.89341667       0.00000000 NULL
P       -0.92119707       5.02183014       1.70426828       0.00000000 NULL
P       -2.23563599       4.91082631       8.53659090       0.00000000 NULL
P       -1.65431893       0.28119122       8.61463731       0.00000000 NULL
P       -1.35732043       4.83237552       6.57164204       0.00000000 NULL
P        0.13031139      -1.28433566       7.88620109       0.00000000 NULL
13
Lattice="3.8255332892603784 -0.05139599337192983 0.026812248941642417 -2.017706254347291 8.79212914613374 -0.07347696213698159 -1.4945819104966576 -2.725748869406945 10.342374285646995" Properties=species:S:1:pos:R:3:initial_magmoms:R:1:castep_labels:S:1 n_minim_iter=4 pbc="T T T"
P       -0.34808832       6.38082473       0.01909450       0.00000000 NULL
P        1.50120522       7.52134996       0.10691095       0.00000000 NULL
P       -0.42139657       0.93843516       1.88175163       0.00000000 NULL
P        0.11975722       0.32451694       5.19341313       0.00000000 NULL
P        2.39056336       1.66165562       4.48548355       0.00000000 NULL
P       -0.71625900       8.36561629       1.36210674       0.00000000 NULL
P       -0.04567880       6.20435155       7.80572240       0.00000000 NULL
P       -2.56134956       6.74217841       5.93815820       0.00000000 NULL
P       -0.93657794       5.10560623       1.70957851       0.00000000 NULL
P       -2.24288177       4.98014594       8.62082234       0.00000000 NULL
P       -1.64335598       0.26625245       8.71096350       0.00000000 NULL
P       -1.35804605       4.89841043       6.63041187       0.00000000 NULL
P        0.16285137      -1.31600877       7.98825852       0.00000000 NULL
13
Lattice="3.81756691055166 -0.05612625368791414 0.042092230043901724 -2.024624770756568 8.895364758430386 -0.10862312654311808 -1.4462557681078672 -2.7872511587112454 10.379908473341207" Properties=species:S:1:pos:R:3:initial_magmoms:R:1:castep_labels:S:1 n_minim_iter=5 pbc="T T T"
P       -0.35662942       6.44688574       0.00182843       0.00000000 NULL
P        1.48990928       7.60641574       0.08783958       0.00000000 NULL
P       -0.41627220       0.94459687       1.88448993       0.00000000 NULL
P        0.14137362       0.31605432       5.20854850       0.00000000 NULL
P        2.40212443       1.65897977       4.50466911       0.00000000 NULL
P       -0.71801031       8.46230079       1.34383334       0.00000000 NULL
P       -0.02303917       6.25067719       7.81000327       0.00000000 NULL
P       -2.54114269       6.80553147       5.92760158       0.00000000 NULL
P       -0.93306169       5.15841589       1.69557395       0.00000000 NULL
P       -2.21069703       5.01324645       8.62664148       0.00000000 NULL
P       -1.60540166       0.24107747       8.73128943       0.00000000 NULL
P       -1.33247700       4.93126178       6.62855076       0.00000000 NULL
P        0.19651051      -1.34418815       8.02295801       0.00000000 NULL
13
Lattice="3.7914653929763444 -0.05847739953142602 0.05289359955673935 -2.0170691080434717 8.961084988698255 -0.1363419174903793 -1.404209134576197 -2.8324877362904517 10.376081414995388" Properties=species:S:1:pos:R:3:initial_magmoms:R:1:castep_labels:S:1 n_minim_iter=6 pbc="T T T"
P       -0.35995718       6.48764499      -0.01239840       0.00000000 NULL
P        1.47560839       7.66115518       0.07131249       0.00000000 NULL
P       -0.41037762       0.94753357       1.88053381       0.00000000 NULL
P        0.15636698       0.30897988       5.20301256       0.00000000 NULL
P        2.39811470       1.65383859       4.50415674       0.00000000 NULL
P       -0.71376868       8.52415737       1.32437268       0.00000000 NULL
P       -0.00546794       6.27583717       7.78677709       0.00000000 NULL
P       -2.51127750       6.84229689       5.90046279       0.00000000 NULL
P       -0.92434745       5.19093272       1.67841371       0.00000000 NULL
P       -2.17482725       5.02927039       8.60314786       0.00000000 NULL
P       -1.56947980       0.21931480       8.71893506       0.00000000 NULL
P       -1.30606301       4.94823243       6.60525648       0.00000000 NULL
P        0.21950473      -1.36453701       8.02369038       0.00000000 NULL
13
Lattice="3.6775149773901186 -0.06800957606936511 0.09108314076881374 -1.982400566746104 9.24890892360291 -0.24041620629519225 -1.245609858256701 -3.015862038211772 10.347843630181893" Properties=species:S:1:pos:R:3:initial_magmoms:R:1:castep_labels:S:1 n_minim_iter=7 pbc="T T T"
P       -0.37308470       6.66697007      -0.06643357       0.00000000 NULL
P        1.41397255       7.90159839       0.00675900       0.00000000 NULL
P       -0.38821694       0.96340612       1.86339725       0.00000000 NULL
P        0.20937564       0.28573758       5.17356914       0.00000000 NULL
P        2.36972011       1.63916951       4.49416095       0.00000000 NULL
P       -0.69732466       8.79673493       1.24946160       0.00000000 NULL
P        0.05445594       6.39785663       7.68695185       0.00000000 NULL
P       -2.39276497       7.01061051       5.79113479       0.00000000 NULL
P       -0.88979700       5.33658412       1.61096236       0.00000000 NULL
P       -2.03734094       5.11134450       8.50387373       0.00000000 NULL
P       -1.43344385       0.13727040       8.66035819       0.00000000 NULL
P       -1.20672753       5.03396854       6.50730632       0.00000000 NULL
P        0.30081129      -1.44393497       8.01419835       0.00000000 NULL
13
Lattice="3.5403966803120714 -0.0760195719948705 0.1065796736674758 -1.9327288252157913 9.587568576470634 -0.29434042856736786 -1.1402479999912978 -3.1695004303921537 10.29648021818018" Properties=species:S:1:pos:R:3:initial_magmoms:R:1:castep_labels:S:1 n_minim_iter=8 pbc="T T T"
P       -0.38352370       6.87920531      -0.09341278       0.00000000 NULL
P        1.34442915       8.18663277      -0.03243157       0.00000000 NULL
P       -0.37457087       0.99507065       1.84996711       0.00000000 NULL
P        0.23189671       0.29172388       5.13364268       0.00000000 NULL
P        2.29911780       1.65307194       4.46904220       0.00000000 NULL
P       -0.68257359       9.12687246       1.21226116       0.00000000 NULL
P        0.07081009       6.59046455       7.60192575       0.00000000 NULL
P       -2.28907717       7.24057751       5.71613352       0.00000000 NULL
P       -0.85837084       5.52218746       1.56688018       0.00000000 NULL
P       -1.93532661       5.25926147       8.42383358       0.00000000 NULL
P       -1.34026610       0.09443984       8.59563267       0.00000000 NULL
P       -1.13921422       5.18140483       6.42494930       0.00000000 NULL
P        0.33374371      -1.49322726       7.98002404       0.00000000 NULL
13
Lattice="3.334109604294197 -0.0962350953737525 0.11085150295590751 -1.8767703476101827 10.238907091936376 -0.35058578490974934 -1.027932924853196 -3.420979192659598 10.31835241238134" Properties=species:S:1:pos:R:3:initial_magmoms:R:1:castep_labels:S:1 n_minim_iter=9 pbc="T T T"
P       -0.41583490       7.27389263      -0.12098293       0.00000000 NULL
P        1.22087361       8.72743103      -0.08089765       0.00000000 NULL
P       -0.36841217       1.06859592       1.85294993       0.00000000 NULL
P        0.24289882       0.33124792       5.11696077       0.00000000 NULL
P        2.16364941       1.68879123       4.46433642       0.00000000 NULL
P       -0.68366739       9.77193587       1.19666180       0.00000000 NULL
P        0.04246025       6.98783188       7.56154150       0.00000000 NULL
P       -2.17345593       7.70331120       5.68438590       0.00000000 NULL
P       -0.82984267       5.89185191       1.52660974       0.00000000 NULL
P       -1.83425780       5.57907473       8.40218872       0.00000000 NULL
P       -1.24661065       0.04454547       8.58437469       0.00000000 NULL
P       -1.08285437       5.49914219       6.37205290       0.00000000 NULL
P        0.34687317      -1.55289527       8.00020869       0.00000000 NULL
13
Lattice="3.2292993082711434 -0.08500747282299112 0.10616220012758486 -1.7989164895857244 9.948210174545276 -0.3103445601570134 -1.0046595746205258 -3.2936829056581343 10.147349824661669" Properties=species:S:1:pos:R:3:initial_magmoms:R:1:castep_labels:S:1 n_minim_iter=10 pbc="T T T"
P       -0.40055745       7.02627597      -0.09092810       0.00000000 NULL
P        1.19705462       8.47258776      -0.04343256       0.00000000 NULL
P       -0.36520503       1.05332591       1.83235298       0.00000000 NULL
P        0.24686034       0.36855681       5.02607526       0.00000000 NULL
P        2.09236930       1.62600978       4.39786513       0.00000000 NULL
P       -0.63801833       9.53053676       1.23782527       0.00000000 NULL
P        0.04782786       6.81051276       7.46654578       0.00000000 NULL
P       -2.08224655       7.49792068       5.63028818       0.00000000 NULL
P       -0.78917255       5.74531814       1.51206848       0.00000000 NULL
P       -1.76630709       5.45021332       8.28496833       0.00000000 NULL
P       -1.21375516       0.04370911       8.44045711       0.00000000 NULL
P       -1.04149880       5.37364601       6.27513269       0.00000000 NULL
P        0.33304366      -1.44088918       7.87470192       0.00000000 NULL
13
Lattice="3.312113092358136 -0.09385495899699774 0.10529818954881014 -1.8603764689507687 10.230211424860672 -0.35771558454937485 -1.0355249829703164 -3.431411806775894 10.372182881809204" Properties=species:S:1:pos:R:3:initial_magmoms:R:1:castep_labels:S:1 n_minim_iter=11 pbc="T T T"
P       -0.42372918       7.21412610      -0.12401257       0.00000000 NULL
P        1.21374662       8.70459047      -0.07965361       0.00000000 NULL
P       -0.38087440       1.08113652       1.86701989       0.00000000 NULL
P        0.25174486       0.35454226       5.12822366       0.00000000 NULL
P        2.13635626       1.64669345       4.47694657       0.00000000 NULL
P       -0.66874413       9.79431117       1.22868049       0.00000000 NULL
P        0.02928521       6.96498995       7.59348830       0.00000000 NULL
P       -2.15082009       7.68467434       5.71478900       0.00000000 NULL
P       -0.81926317       5.89854318       1.52024284       0.00000000 NULL
P       -1.82771564       5.56577639       8.43422282       0.00000000 NULL
P       -1.25475545       0.00546063       8.61409878       0.00000000 NULL
P       -1.08329359       5.49409162       6.37686741       0.00000000 NULL
P        0.33691694      -1.51178293       8.04428706       0.00000000 NULL
13
Lattice="3.3000750379840644 -0.09352838196631816 0.10968657330017473 -1.8536482642864422 10.208783437777418 -0.3623228210807412 -1.0187407418703165 -3.42793785358335 10.327760112655898" Properties=species:S:1:pos:R:3:initial_magmoms:R:1:castep_labels:S:1 n_minim_iter=12 pbc="T T T"
P       -0.42392348       7.19304453      -0.12657488       0.00000000 NULL
P        1.20959072       8.68305224      -0.07890939       0.00000000 NULL
P       -0.37881968       1.08049568       1.85886040       0.00000000 NULL
P        0.25987896       0.35480861       5.10539297       0.00000000 NULL
P        2.13297098       1.63778358       4.45961455       0.00000000 NULL
P       -0.66361758       9.77713183       1.22349852       0.00000000 NULL
P        0.03836359       6.94652697       7.55878365       0.00000000 NULL
P       -2.13374045       7.66546920       5.68664228       0.00000000 NULL
P       -0.81343291       5.88751114       1.50944589       0.00000000 NULL
P       -1.80983573       5.55159669       8.39283085       0.00000000 NULL
P       -1.24003818      -0.00100563       8.57379000       0.00000000 NULL
P       -1.07149054       5.48200920       6.34386081       0.00000000 NULL
P        0.34622120      -1.50587501       8.01167678       0.00000000 NULL
13
Lattice="3.2982242645024447 -0.09281754027217406 0.11316322206510655 -1.8510951462673826 10.220047376648665 -0.373094059528969 -1.008983132451972 -3.4425109349797025 10.315043484402842" Properties=species:S:1:pos:R:3:initial_magmoms:R:1:castep_labels:S:1 n_minim_iter=13 pbc="T T T"
P       -0.42468720       7.19400761      -0.13380844       0.00000000 NULL
P        1.21034724       8.68905321      -0.08325854       0.00000000 NULL
P       -0.37885502       1.08306568       1.85563482       0.00000000 NULL
P        0.26781707       0.35292429       5.09676812       0.00000000 NULL
P        2.13468585       1.63156894       4.45278939       0.00000000 NULL
P       -0.65932693       9.79093264       1.21732848       0.00000000 NULL
P        0.04581928       6.94539956       7.54197672       0.00000000 NULL
P       -2.12360264       7.66682417       5.67084839       0.00000000 NULL
P       -0.80966745       5.89417613       1.50005658       0.00000000 NULL
P       -1.79944452       5.54948980       8.37275259       0.00000000 NULL
P       -1.23219221      -0.01361293       8.55803298       0.00000000 NULL
P       -1.06432328       5.48307160       6.32512580       0.00000000 NULL
P        0.35396501      -1.50914889       8.00274518       0.00000000 NULL
13
Lattice="3.2952863078586394 -0.08654900198684916 0.12816121917750586 -1.8352258419758924 10.299071027110026 -0.4372296887238334 -0.9712518980475288 -3.537454271219167 10.277947683218898" Properties=species:S:1:pos:R:3:initial_magmoms:R:1:castep_labels:S:1 n_minim_iter=14 pbc="T T T"
P       -0.42621112       7.21139338      -0.17884350       0.00000000 NULL
P        1.22191797       8.73573585      -0.11289359       0.00000000 NULL
P       -0.38222162       1.09925891       1.84300757       0.00000000 NULL
P        0.30722203       0.33950027       5.06327288       0.00000000 NULL
P        2.14461640       1.59821648       4.42332259       0.00000000 NULL
P       -0.63307787       9.88321626       1.18245005       0.00000000 NULL
P        0.08167366       6.94530380       7.46741973       0.00000000 NULL
P       -2.07403277       7.68198135       5.59807736       0.00000000 NULL
P       -0.78915351       5.93971082       1.45068008       0.00000000 NULL
P       -1.75292670       5.54090978       8.28514416       0.00000000 NULL
P       -1.20218815      -0.09018106       8.49719245       0.00000000 NULL
P       -1.03155986       5.49374029       6.23626269       0.00000000 NULL
P        0.38791457      -1.53541408       7.97685146       0.00000000 NULL
13
Lattice="3.3038544287400238 -0.05587255021273021 0.13342869453443418 -1.768959535298304 10.42193148965766 -0.5500423631205569 -0.9820057644087685 -3.723182474079507 10.24879623295977" Properties=species:S:1:pos:R:3:initial_magmoms:R:1:castep_labels:S:1 n_minim_iter=15 pbc="T T T"
P       -0.40258036       7.23915821      -0.27561532       0.00000000 NULL
P        1.28487839       8.79007757      -0.16870109       0.00000000 NULL
P       -0.40325152       1.13660981       1.82750264       0.00000000 NULL
P        0.35740193       0.30799595       5.01430395       0.00000000 NULL
P        2.15534137       1.54304300       4.36023957       0.00000000 NULL
P       -0.55480228      10.03694601       1.12546955       0.00000000 NULL
P        0.12986048       6.92207108       7.35343896       0.00000000 NULL
P       -1.98674058       7.68210063       5.49199482       0.00000000 NULL
P       -0.73777287       6.01136530       1.37236809       0.00000000 NULL
P       -1.70277883       5.51032616       8.15774945       0.00000000 NULL
P       -1.20883513      -0.23386499       8.41790084       0.00000000 NULL
P       -0.98928313       5.50435792       6.08077699       0.00000000 NULL
P        0.40370851      -1.59750645       7.95094180       0.00000000 NULL
13
Lattice="3.288890024476892 -0.09881639449968657 0.221123977570757 -1.86025077222263 10.56295337021637 -0.5826517258053032 -0.7064609402651651 -3.7287445327565902 9.797347906886234" Properties=species:S:1:pos:R:3:initial_magmoms:R:1:castep_labels:S:1 n_minim_iter=16 pbc="T T T"
P       -0.47897025       7.29984821      -0.29658899       0.00000000 NULL
P        1.20074221       8.82727651      -0.11322188       0.00000000 NULL
P       -0.38797749       1.18319647       1.74288027       0.00000000 NULL
P        0.48959875       0.32331369       4.81098667       0.00000000 NULL
P        2.22999471       1.53150212       4.22531317       0.00000000 NULL
P       -0.60936849      10.18520585       1.08632346       0.00000000 NULL
P        0.23490425       7.00038209       7.05123289       0.00000000 NULL
P       -1.89884940       7.79730589       5.21821714       0.00000000 NULL
P       -0.74719113       6.10373074       1.29477421       0.00000000 NULL
P       -1.55115705       5.62569524       7.76568160       0.00000000 NULL
P       -1.01623497      -0.18890718       8.02480059       0.00000000 NULL
P       -0.88979658       5.61617664       5.77105854       0.00000000 NULL
P        0.60999995      -1.59462742       7.63682592       0.00000000 NULL
13
Lattice="3.331421452438246 -0.05423445615517701 0.18912037089488948 -1.7788820936524337 10.656150584125047 -0.6524009071071395 -0.8428456581267709 -3.8842262050924035 10.127260735907727" Properties=species:S:1:pos:R:3:initial_magmoms:R:1:castep_labels:S:1 n_minim_iter=17 pbc="T T T"
P       -0.41375097       7.37631439      -0.35723832       0.00000000 NULL
P        1.30218473       8.93423016      -0.18761907       0.00000000 NULL
P       -0.39978921       1.17471293       1.79085303       0.00000000 NULL
P        0.45526084       0.28170915       4.94716987       0.00000000 NULL
P        2.23862277       1.53557946       4.31470418       0.00000000 NULL
P       -0.53022710      10.27676445       1.05773025       0.00000000 NULL
P        0.23814916       7.00156387       7.21638525       0.00000000 NULL
P       -1.89491608       7.80073130       5.33887356       0.00000000 NULL
P       -0.71028585       6.14123492       1.30425488       0.00000000 NULL
P       -1.59124723       5.58267957       7.97974796       0.00000000 NULL
P       -1.10684606      -0.29105967       8.27920539       0.00000000 NULL
P       -0.90046066       5.60287702       5.90818560       0.00000000 NULL
P        0.53318187      -1.68365975       7.87229582       0.00000000 NULL
13
Lattice="3.3076394437986023 -0.04898092710304617 0.18829680009441857 -1.7549961145163866 10.586539746798781 -0.6455160054798086 -0.8388078685756145 -3.858294978343951 10.075956756053774" Properties=species:S:1:pos:R:3:initial_magmoms:R:1:castep_labels:S:1 n_minim_iter=18 pbc="T T T"
P       -0.40378851       7.32723897      -0.35439361       0.00000000 NULL
P        1.30226010       8.87490209      -0.18097706       0.00000000 NULL
P       -0.39714473       1.16771867       1.78269204       0.00000000 NULL
P        0.45433485       0.28373228       4.92150435       0.00000000 NULL
P        2.22620520       1.52816315       4.29371316       0.00000000 NULL
P       -0.51539910      10.21475487       1.05840689       0.00000000 NULL
P        0.24445562       6.95798470       7.18393647       0.00000000 NULL
P       -1.87031497       7.74929182       5.31635477       0.00000000 NULL
P       -0.69799379       6.10413570       1.29979243       0.00000000 NULL
P       -1.57286378       5.54880382       7.94205722       0.00000000 NULL
P       -1.09832727      -0.28906174       8.23724089       0.00000000 NULL
P       -0.88636992       5.57086177       5.87821812       0.00000000 NULL
P        0.53000962      -1.66821972       7.83350781       0.00000000 NULL
13
Lattice="3.3069030106339 -0.047723992217365285 0.18754822015926906 -1.7517409278653098 10.582867821356805 -0.6493228087069746 -0.841422447748933 -3.862848166472634 10.078363848120482" Properties=species:S:1:pos:R:3:initial_magmoms:R:1:castep_labels:S:1 n_minim_iter=19 pbc="T T T"
P       -0.40233367       7.32270783      -0.35920150       0.00000000 NULL
P        1.30401430       8.86789271      -0.18222043       0.00000000 NULL
P       -0.39903921       1.16777448       1.78243788       0.00000000 NULL
P        0.45464996       0.28195369       4.92065103       0.00000000 NULL
P        2.22620363       1.52513667       4.29228458       0.00000000 NULL
P       -0.51286016      10.21303297       1.05704527       0.00000000 NULL
P        0.24383810       6.95040609       7.18268831       0.00000000 NULL
P       -1.86716580       7.74258498       5.31452716       0.00000000 NULL
P       -0.69603624       6.10244610       1.29816595       0.00000000 NULL
P       -1.57296177       5.54323795       7.94084489       0.00000000 NULL
P       -1.10063367      -0.29340479       8.23724097       0.00000000 NULL
P       -0.88523912       5.56767987       5.87326121       0.00000000 NULL
P        0.52900520      -1.67046208       7.83529973       0.00000000 NULL
13
Lattice="3.307958898160386 -0.045961998409987374 0.18928695118285768 -1.7482146531132494 10.585046898966906 -0.6583853790968729 -0.8383601352027115 -3.8742449776063697 10.072437843214525" Properties=species:S:1:pos:R:3:initial_magmoms:R:1:castep_labels:S:1 n_minim_iter=20 pbc="T T T"
P       -0.40123381       7.31804204      -0.37051953       0.00000000 NULL
P        1.30707212       8.85796341      -0.18171412       0.00000000 NULL
P       -0.40321453       1.17043749       1.77969384       0.00000000 NULL
P        0.46071252       0.27925761       4.91391807       0.00000000 NULL
P        2.23178270       1.51980495       4.28692623       0.00000000 NULL
P       -0.50850519      10.22017086       1.05432118       0.00000000 NULL
P        0.24723506       6.94089754       7.17382868       0.00000000 NULL
P       -1.85747312       7.73614331       5.30395650       0.00000000 NULL
P       -0.69184961       6.10554324       1.29315979       0.00000000 NULL
P       -1.56860645       5.53856832       7.92876104       0.00000000 NULL
P       -1.09980181      -0.30078441       8.22727771       0.00000000 NULL
P       -0.87896216       5.56829801       5.85415768       0.00000000 NULL
P        0.53481363      -1.67504396       7.83225245       0.00000000 NULL
13
Lattice="3.3146856320004137 -0.0437845694747473 0.20324828507527137 -1.746549189904472 10.619748005322691 -0.6762112425979852 -0.8046367225098292 -3.8990018527507235 10.029895252746547" Properties=species:S:1:pos:R:3:initial_magmoms:R:1:castep_labels:S:1 n_minim_iter=21 pbc="T T T"
P       -0.40100607       7.32993567      -0.38960063       0.00000000 NULL
P        1.31334299       8.86604564      -0.17411815       0.00000000 NULL
P       -0.40612887       1.18006404       1.76851930       0.00000000 NULL
P        0.48662640       0.27740199       4.89003263       0.00000000 NULL
P        2.25712084       1.51809430       4.27336833       0.00000000 NULL
P       -0.49907190      10.26321959       1.04721166       0.00000000 NULL
P        0.27404678       6.94942902       7.14018353       0.00000000 NULL
P       -1.82768056       7.75073735       5.26615265       0.00000000 NULL
P       -0.68164448       6.12973064       1.28008494       0.00000000 NULL
P       -1.54043540       5.55132696       7.88064236       0.00000000 NULL
P       -1.07567349      -0.30852384       8.18261694       0.00000000 NULL
P       -0.85220240       5.58960547       5.80251170       0.00000000 NULL
P        0.56852556      -1.68322432       7.80642654       0.00000000 NULL
13
Lattice="3.3051699313333263 -0.02157122211500788 0.22037920898387273 -1.690758895989121 10.657547987437123 -0.7390745356720362 -0.7695201855662359 -3.9876976442320418 9.986814538350348" Properties=species:S:1:pos:R:3:initial_magmoms:R:1:castep_labels:S:1 n_minim_iter=22 pbc="T T T"
P       -0.36889193       7.33877452      -0.45025686       0.00000000 NULL
P        1.34923573       8.87090010      -0.19034911       0.00000000 NULL
P       -0.40800865       1.18319195       1.74775715       0.00000000 NULL
P        0.52357918       0.25338390       4.85292517       0.00000000 NULL
P        2.28954193       1.50775351       4.24780245       0.00000000 NULL
P       -0.44210395      10.31789834       1.00544560       0.00000000 NULL
P        0.33421836       6.92127007       7.07117969       0.00000000 NULL
P       -1.73954729       7.72937898       5.18776106       0.00000000 NULL
P       -0.63711692       6.15256769       1.24368244       0.00000000 NULL
P       -1.47338405       5.51938107       7.79472078       0.00000000 NULL
P       -1.03921767      -0.36643199       8.12082694       0.00000000 NULL
P       -0.78469203       5.58988071       5.70306623       0.00000000 NULL
P        0.60706156      -1.72561195       7.77933113       0.00000000 NULL
