10
Lattice="5.571669999999999 -2.0602658522560556e-16 1.5529078077794077e-16 0.6332848456216019 6.143827814050946 4.0667207532349646e-16 0.6332848456216014 -0.02383239001017325 6.143781590021931" Properties=species:S:1:pos:R:3:initial_magmoms:R:1:castep_labels:S:1 n_minim_iter=1 pbc="T T T"
P        4.31188588       5.32623590       5.74632254       0.00000000 NULL
P        0.89276603       2.66562071       2.27659547       0.00000000 NULL
P        1.80213018       0.14794162       5.85822968       0.00000000 NULL
P        4.58796518       2.77378162       3.24255584       0.00000000 NULL
P        5.06543162       4.29877502       1.53627593       0.00000000 NULL
P        2.27959662       4.60341919       1.23281122       0.00000000 NULL
P        0.89430652       4.59542358       3.01921708       0.00000000 NULL
P        3.68014152       6.08519846       1.53520999       0.00000000 NULL
P        4.02225082       5.01441203       3.24167174       0.00000000 NULL
P        0.60313097       0.16219834       1.95505821       0.00000000 NULL
10
Lattice="5.587077439474395 0.0003452577205074389 0.0003465996099827532 0.6354167920425564 6.161670266682587 -0.001988167404608639 0.6354167920425559 -0.02588975472981369 6.161616196155833" Properties=species:S:1:pos:R:3:initial_magmoms:R:1:castep_labels:S:1 n_minim_iter=2 pbc="T T T"
P        4.32463812       5.33998339       5.76103286       0.00000000 NULL
P        0.89568260       2.67221241       2.28230340       0.00000000 NULL
P        1.80728419       0.14666945       5.87512389       0.00000000 NULL
P        4.60082291       2.78090336       3.25143390       0.00000000 NULL
P        5.07978724       4.31078267       1.53929997       0.00000000 NULL
P        2.28624852       4.61617390       1.23474582       0.00000000 NULL
P        0.89730442       4.60793496       3.02715442       0.00000000 NULL
P        3.69084314       6.10320974       1.53801398       0.00000000 NULL
P        4.03390965       5.02797094       3.25008868       0.00000000 NULL
P        0.60495413       0.16249745       1.96055315       0.00000000 NULL
10
Lattice="6.136128275707915 0.015288040142418113 0.015347459118276993 0.714300045416429 6.800874829391076 -0.07591036862571818 0.7143000454164284 -0.10229092442363094 6.800529199693984" Properties=species:S:1:pos:R:3:initial_magmoms:R:1:castep_labels:S:1 n_minim_iter=3 pbc="T T T"
P        4.78440165       5.83165146       6.28660838       0.00000000 NULL
P        1.00203747       2.90700367       2.48601069       0.00000000 NULL
P        1.99362964       0.09925058       6.48051439       0.00000000 NULL
P        5.06169378       3.03614178       3.57028178       0.00000000 NULL
P        5.59403741       4.74190282       1.64747833       0.00000000 NULL
P        2.52597327       5.07301058       1.30236433       0.00000000 NULL
P        1.00788489       5.05472368       3.31054906       0.00000000 NULL
P        4.07594902       6.75014338       1.63698148       0.00000000 NULL
P        4.45334297       5.51332220       3.55166674       0.00000000 NULL
P        0.67097879       0.17331743       2.15707477       0.00000000 NULL
10
Lattice="6.08573986484925 0.06072540397109392 0.060961421228959645 0.7586761701144138 6.797923163187194 -0.06938905526143103 0.7586761701144132 -0.09575821037871073 6.797602852383485" Properties=species:S:1:pos:R:3:initial_magmoms:R:1:castep_labels:S:1 n_minim_iter=4 pbc="T T T"
P        4.83140697       5.86282494       6.31513038       0.00000000 NULL
P        1.02986086       2.91089532       2.49269011       0.00000000 NULL
P        2.02892699       0.11154719       6.49045584       0.00000000 NULL
P        5.07179692       3.07349632       3.60070000       0.00000000 NULL
P        5.59698503       4.77327122       1.69138287       0.00000000 NULL
P        2.55411510       5.08933224       1.31581966       0.00000000 NULL
P        1.06065932       5.05724032       3.31771252       0.00000000 NULL
P        4.10352925       6.77527352       1.66705670       0.00000000 NULL
P        4.48665644       5.53620500       3.58213443       0.00000000 NULL
P        0.68511034       0.17918693       2.15547112       0.00000000 NULL
10
Lattice="6.067390198064202 0.10619927649610264 0.10661203393181835 0.8067341270527412 6.836089576707129 -0.06922791747752446 0.8067341270527406 -0.09574512431895142 6.835769603818669" Properties=species:S:1:pos:R:3:initial_magmoms:R:1:castep_labels:S:1 n_minim_iter=5 pbc="T T T"
P        4.90342057       5.92388966       6.37549042       0.00000000 NULL
P        1.06299134       2.92919136       2.51199926       0.00000000 NULL
P        2.07413924       0.11878369       6.53959944       0.00000000 NULL
P        5.10783434       3.12627175       3.64995519       0.00000000 NULL
P        5.62958900       4.83053486       1.74114989       0.00000000 NULL
P        2.59589390       5.13521648       1.33144780       0.00000000 NULL
P        1.11820664       5.08757639       3.34173691       0.00000000 NULL
P        4.15190174       6.84099365       1.70130823       0.00000000 NULL
P        4.54342890       5.58850259       3.63029232       0.00000000 NULL
P        0.70299967       0.18531490       2.16596588       0.00000000 NULL
10
Lattice="5.9952349368364555 0.27706168259973624 0.2781385192168769 0.9869412049176851 6.954341549736322 -0.07709687894609746 0.9869412049176846 -0.10407273526320743 6.953990162842266" Properties=species:S:1:pos:R:3:initial_magmoms:R:1:castep_labels:S:1 n_minim_iter=6 pbc="T T T"
P        5.17168820       6.12394373       6.57103295       0.00000000 NULL
P        1.18712953       2.98356300       2.57187131       0.00000000 NULL
P        2.24173565       0.13620002       6.70326343       0.00000000 NULL
P        5.23935312       3.31200837       3.81681426       0.00000000 NULL
P        5.75115775       5.02282248       1.91955904       0.00000000 NULL
P        2.75354028       5.29073697       1.37561803       0.00000000 NULL
P        1.33157729       5.17806205       3.41238067       0.00000000 NULL
P        4.32919476       7.06000687       1.81478573       0.00000000 NULL
P        4.75586507       5.75718759       3.79251882       0.00000000 NULL
P        0.77130639       0.20649245       2.19433985       0.00000000 NULL
10
Lattice="6.0916629484734734 0.2894761181716094 0.29060120512304194 1.0115906462925979 7.033323253293724 -0.1249332545611237 1.0115906462925974 -0.1522151271973326 7.032785711115452" Properties=species:S:1:pos:R:3:initial_magmoms:R:1:castep_labels:S:1 n_minim_iter=7 pbc="T T T"
P        5.27209316       6.15843364       6.60954899       0.00000000 NULL
P        1.21467104       3.00031809       2.58479944       0.00000000 NULL
P        2.27862546       0.08984343       6.79361036       0.00000000 NULL
P        5.32445694       3.34517960       3.84035579       0.00000000 NULL
P        5.86237997       5.05506286       1.92653715       0.00000000 NULL
P        2.81654849       5.35494480       1.33833793       0.00000000 NULL
P        1.34989457       5.21194678       3.42243826       0.00000000 NULL
P        4.39572605       7.13970221       1.79162460       0.00000000 NULL
P        4.85418696       5.78610832       3.81270291       0.00000000 NULL
P        0.79676484       0.20493733       2.20162773       0.00000000 NULL
10
Lattice="6.033015954376265 0.29585495336436257 0.29700483249653187 1.0119586172017614 6.977185090724528 -0.12229160173675335 1.011958617201761 -0.14935572991178003 6.976658218088833" Properties=species:S:1:pos:R:3:initial_magmoms:R:1:castep_labels:S:1 n_minim_iter=8 pbc="T T T"
P        5.23864576       6.11647914       6.56475526       0.00000000 NULL
P        1.21017916       2.97913741       2.56621260       0.00000000 NULL
P        2.26645098       0.09069984       6.74485007       0.00000000 NULL
P        5.28295896       3.32910456       3.81484028       0.00000000 NULL
P        5.81752945       5.01883599       1.92261669       0.00000000 NULL
P        2.80102147       5.31847670       1.32827889       0.00000000 NULL
P        1.34629337       5.17046800       3.39565091       0.00000000 NULL
P        4.36280135       7.08676660       1.78262860       0.00000000 NULL
P        4.82332472       5.74262957       3.78931067       0.00000000 NULL
P        0.79485812       0.20516389       2.18159968       0.00000000 NULL
10
Lattice="6.030485275626394 0.29503346522247026 0.2961801515330866 1.0107651290381603 6.983056517653119 -0.1263386827114393 1.01076512903816 -0.15342555616324122 6.982513901898294" Properties=species:S:1:pos:R:3:initial_magmoms:R:1:castep_labels:S:1 n_minim_iter=9 pbc="T T T"
P        5.23528576       6.11792204       6.56680004       0.00000000 NULL
P        1.20927800       2.98068652       2.56717146       0.00000000 NULL
P        2.26360496       0.08581551       6.75270670       0.00000000 NULL
P        5.27884760       3.33159870       3.81452551       0.00000000 NULL
P        5.81625028       5.01779171       1.92224598       0.00000000 NULL
P        2.80100764       5.32349141       1.32269413       0.00000000 NULL
P        1.34198849       5.17227968       3.39616564       0.00000000 NULL
P        4.35723113       7.09183418       1.77907855       0.00000000 NULL
P        4.82207438       5.74200125       3.79038481       0.00000000 NULL
P        0.79606662       0.20575040       2.18048357       0.00000000 NULL
10
Lattice="6.018317653576112 0.2926400722599038 0.29377745633443636 1.0067429660412366 6.998752498316052 -0.13971283783669344 1.0067429660412364 -0.1668604966061702 6.998157885073319" Properties=species:S:1:pos:R:3:initial_magmoms:R:1:castep_labels:S:1 n_minim_iter=10 pbc="T T T"
P        5.22191048       6.11958173       6.57047767       0.00000000 NULL
P        1.20600868       2.98442386       2.56891184       0.00000000 NULL
P        2.25346098       0.06972655       6.77510483       0.00000000 NULL
P        5.26261981       3.33829691       3.81183128       0.00000000 NULL
P        5.80865335       5.01221993       1.92030413       0.00000000 NULL
P        2.79949453       5.33733334       1.30380714       0.00000000 NULL
P        1.32769955       5.17537818       3.39586258       0.00000000 NULL
P        4.33685838       7.10488786       1.76646543       0.00000000 NULL
P        4.81563561       5.73732623       3.79196190       0.00000000 NULL
P        0.79973382       0.20741179       2.17588113       0.00000000 NULL
10
Lattice="6.004726267111945 0.2901720597471501 0.2912998515669171 1.0024766934515066 7.01810554890764 -0.1560385495114702 1.0024766934515066 -0.18326115745324667 7.0174474613430995" Properties=species:S:1:pos:R:3:initial_magmoms:R:1:castep_labels:S:1 n_minim_iter=11 pbc="T T T"
P        5.20763234       6.12151710       6.57553633       0.00000000 NULL
P        1.20279251       2.98923279       2.57062368       0.00000000 NULL
P        2.24272155       0.05100818       6.80110240       0.00000000 NULL
P        5.24508468       3.34525604       3.80978274       0.00000000 NULL
P        5.79943525       5.00801878       1.91711211       0.00000000 NULL
P        2.79707211       5.35326851       1.28302480       0.00000000 NULL
P        1.31268696       5.17923141       3.39516013       0.00000000 NULL
P        4.31505010       7.12081332       1.75126945       0.00000000 NULL
P        4.80840641       5.73402925       3.79311187       0.00000000 NULL
P        0.80356659       0.20833236       2.17234551       0.00000000 NULL
10
Lattice="5.986636350843854 0.2887696018787629 0.2898919428618335 0.9988740878609053 7.03703396705597 -0.17497181642583964 0.9988740878609054 -0.20226770673901948 7.036302293453097" Properties=species:S:1:pos:R:3:initial_magmoms:R:1:castep_labels:S:1 n_minim_iter=12 pbc="T T T"
P        5.19224913       6.12111048       6.57916839       0.00000000 NULL
P        1.20005686       2.99360669       2.57097433       0.00000000 NULL
P        2.23173548       0.03009265       6.82712220       0.00000000 NULL
P        5.22505365       3.35168806       3.80715840       0.00000000 NULL
P        5.78690570       5.00337833       1.91288337       0.00000000 NULL
P        2.79358753       5.36872652       1.26017789       0.00000000 NULL
P        1.29813228       5.18094954       3.39227888       0.00000000 NULL
P        4.29145045       7.13619168       1.73337839       0.00000000 NULL
P        4.79981843       5.72957856       3.79257320       0.00000000 NULL
P        0.80762617       0.20855125       2.16863593       0.00000000 NULL
10
Lattice="5.973073827595137 0.2872839004494459 0.28840046705878786 0.9956942810513487 7.058862866456114 -0.19531194483178624 0.9956942810513488 -0.22269235812592003 7.058052127666618" Properties=species:S:1:pos:R:3:initial_magmoms:R:1:castep_labels:S:1 n_minim_iter=13 pbc="T T T"
P        5.18054121       6.12170364       6.58449757       0.00000000 NULL
P        1.19831001       2.99897426       2.57162904       0.00000000 NULL
P        2.22201408       0.00810377       6.85598165       0.00000000 NULL
P        5.20855100       3.35876297       3.80558088       0.00000000 NULL
P        5.77807033       4.99995416       1.90807596       0.00000000 NULL
P        2.79153342       5.38580205       1.23643585       0.00000000 NULL
P        1.28405170       5.18390004       3.39000674       0.00000000 NULL
P        4.27058861       7.15429204       1.71452934       0.00000000 NULL
P        4.79462081       5.72663626       3.79261379       0.00000000 NULL
P        0.81238961       0.20864397       2.16573470       0.00000000 NULL
10
Lattice="5.953839804456438 0.28745576705849896 0.28857300164998906 0.9936976271717995 7.074002521173488 -0.21529019175846606 0.9936976271717997 -0.24272918265139828 7.073114171291567" Properties=species:S:1:pos:R:3:initial_magmoms:R:1:castep_labels:S:1 n_minim_iter=14 pbc="T T T"
P        5.16781180       6.11761972       6.58521567       0.00000000 NULL
P        1.19719427       3.00207084       2.56991977       0.00000000 NULL
P        2.21244959      -0.01327055       6.87900927       0.00000000 NULL
P        5.18936949       3.36437102       3.80190245       0.00000000 NULL
P        5.76538730       4.99312481       1.90311318       0.00000000 NULL
P        2.78846740       5.39836811       1.21198089       0.00000000 NULL
P        1.27137263       5.18179908       3.38470223       0.00000000 NULL
P        4.24829253       7.16666990       1.69497394       0.00000000 NULL
P        4.78791030       5.71939300       3.79037689       0.00000000 NULL
P        0.81729277       0.20879784       2.16085465       0.00000000 NULL
10
Lattice="5.952994890092864 0.2872947805731347 0.28841138946950634 0.993424074590837 7.085001268206176 -0.2225837300682443 0.993424074590837 -0.2500653310896019 7.084084543366291" Properties=species:S:1:pos:R:3:initial_magmoms:R:1:castep_labels:S:1 n_minim_iter=15 pbc="T T T"
P        5.16756137       6.12065176       6.59028291       0.00000000 NULL
P        1.19763985       3.00537547       2.57121383       0.00000000 NULL
P        2.21077141      -0.02078597       6.89221801       0.00000000 NULL
P        5.18726885       3.36836087       3.80348947       0.00000000 NULL
P        5.76585960       4.99461671       1.90209335       0.00000000 NULL
P        2.78936215       5.40659043       1.20441767       0.00000000 NULL
P        1.26784340       5.18522517       3.38560456       0.00000000 NULL
P        4.24434085       7.17664588       1.68919074       0.00000000 NULL
P        4.78933217       5.72140694       3.79224691       0.00000000 NULL
P        0.81941065       0.20890923       2.16111822       0.00000000 NULL
10
Lattice="5.9481633843247375 0.2877150679149319 0.2888333103132556 0.9933383648621448 7.091561105940335 -0.22943608253902187 0.9933383648621448 -0.25694307813077866 7.090617750933776" Properties=species:S:1:pos:R:3:initial_magmoms:R:1:castep_labels:S:1 n_minim_iter=16 pbc="T T T"
P        5.16532760       6.12055646       6.59202396       0.00000000 NULL
P        1.19790755       3.00706569       2.57107390       0.00000000 NULL
P        2.20852659      -0.02789782       6.90139134       0.00000000 NULL
P        5.18260828       3.37105308       3.80331700       0.00000000 NULL
P        5.76325820       4.99362020       1.90082005       0.00000000 NULL
P        2.78917651       5.41182966       1.19651249       0.00000000 NULL
P        1.26448703       5.18550690       3.38454439       0.00000000 NULL
P        4.23856872       7.18251356       1.68298654       0.00000000 NULL
P        4.78874209       5.72037483       3.79239861       0.00000000 NULL
P        0.82132204       0.20901374       2.16003532       0.00000000 NULL
10
Lattice="5.914027227898308 0.29154759479112163 0.29268073280849205 0.9936844863423122 7.148703003439521 -0.2852202148705614 0.9936844863423122 -0.31294844866444715 7.147542827492149" Properties=species:S:1:pos:R:3:initial_magmoms:R:1:castep_labels:S:1 n_minim_iter=17 pbc="T T T"
P        5.15199938       6.12300554       6.60985297       0.00000000 NULL
P        1.20130128       3.02240054       2.57109794       0.00000000 NULL
P        2.19265438      -0.08556673       6.97947334       0.00000000 NULL
P        5.14966799       3.39470082       3.80422973       0.00000000 NULL
P        5.74662987       4.98869626       1.89153056       0.00000000 NULL
P        2.78961626       5.45721671       1.13327423       0.00000000 NULL
P        1.23942081       5.19053974       3.37796599       0.00000000 NULL
P        4.19643442       7.23440558       1.63356293       0.00000000 NULL
P        4.78775127       5.71546269       3.79596802       0.00000000 NULL
P        0.83705317       0.21011766       2.15264287       0.00000000 NULL
10
Lattice="5.935425422596816 0.30606110974051126 0.30725065643985555 1.0121205547476426 7.326248515016858 -0.4297230572295293 1.0121205547476426 -0.4581389168001706 7.324526465418394" Properties=species:S:1:pos:R:3:initial_magmoms:R:1:castep_labels:S:1 n_minim_iter=18 pbc="T T T"
P        5.21067069       6.15435906       6.68088465       0.00000000 NULL
P        1.23083742       3.06987578       2.57920140       0.00000000 NULL
P        2.19783178      -0.22970249       7.19991057       0.00000000 NULL
P        5.16554449       3.46158427       3.82897835       0.00000000 NULL
P        5.79797355       5.01496019       1.87067152       0.00000000 NULL
P        2.83026084       5.59036719       0.99142885       0.00000000 NULL
P        1.21556637       5.22782030       3.37705067       0.00000000 NULL
P        4.18327908       7.40197041       1.51738138       0.00000000 NULL
P        4.85945591       5.74065277       3.81786504       0.00000000 NULL
P        0.87962264       0.20848252       2.15439234       0.00000000 NULL
10
Lattice="5.817343797038303 0.32083991272918116 0.32208689918730543 1.014995656260761 7.195602663760213 -0.4332522659398206 1.014995656260761 -0.46116131345308553 7.193867907018392" Properties=species:S:1:pos:R:3:initial_magmoms:R:1:castep_labels:S:1 n_minim_iter=19 pbc="T T T"
P        5.14767150       6.04587021       6.56899540       0.00000000 NULL
P        1.22400395       3.01785293       2.52995510       0.00000000 NULL
P        2.17780708      -0.23668293       7.08533998       0.00000000 NULL
P        5.08647898       3.41824275       3.76540698       0.00000000 NULL
P        5.70611346       4.92865887       1.85358888       0.00000000 NULL
P        2.79744156       5.50241831       0.96120847       0.00000000 NULL
P        1.21383885       5.12403502       3.30920747       0.00000000 NULL
P        4.12251075       7.27810798       1.48431651       0.00000000 NULL
P        4.79801680       5.63645221       3.75609847       0.00000000 NULL
P        0.87434924       0.20656534       2.10962873       0.00000000 NULL
10
Lattice="5.903216011074575 0.314329011197992 0.3155506921822104 1.0175765187108514 7.294637504352538 -0.4470508365391028 1.0175765187108514 -0.4753439441516217 7.292848476769226" Properties=species:S:1:pos:R:3:initial_magmoms:R:1:castep_labels:S:1 n_minim_iter=20 pbc="T T T"
P        5.20341471       6.11547680       6.64574772       0.00000000 NULL
P        1.23423018       3.05516402       2.56053600       0.00000000 NULL
P        2.19558105      -0.24871737       7.18052768       0.00000000 NULL
P        5.14718906       3.45361223       3.80686334       0.00000000 NULL
P        5.77869341       4.98238026       1.86268467       0.00000000 NULL
P        2.82708540       5.57116983       0.96184327       0.00000000 NULL
P        1.21650386       5.19077259       3.35177512       0.00000000 NULL
P        4.16811187       7.37376971       1.49156103       0.00000000 NULL
P        4.85192039       5.70284929       3.79745283       0.00000000 NULL
P        0.88273586       0.20849117       2.13686283       0.00000000 NULL
