12
Lattice="4.784000356617014 -4.379981683126288e-06 0.0 -2.391996006383372 4.556754427387363 0.0 0.0 0.0 11.398931457848555" Properties=species:S:1:pos:R:3:initial_magmoms:R:1:castep_labels:S:1:forces:R:3 n_minim_iter=6 energy=-60.860378320667 stress="-3.863318772547783e-06 0.0 -0.0 0.0 1.2475300203018882e-06 0.0 -0.0 0.0 -3.549424122278275e-05" free_energy=-60.860378320667 pbc="T T T"
P        1.39934481       3.42193720       6.52329000       0.00000000 NULL      -0.00294400       0.00588600      -0.00327600
P        3.79134289       1.13480939       4.87564145       0.00000000 NULL      -0.00294500      -0.00588400       0.00327500
P        1.39934271       1.13481158       6.52329000       0.00000000 NULL      -0.00294400      -0.00588600      -0.00327600
P       -0.99265537       3.42193939       4.87564145       0.00000000 NULL      -0.00294300       0.00588400       0.00327600
P       -2.59615485       4.92435351       7.98081310       0.00000000 NULL       0.00252700      -0.00585700      -0.00758900
P       -0.20415952      -0.36759960       3.41811835       0.00000000 NULL       0.00252600       0.00585800       0.00758900
P        2.18784066      -0.36760179       7.98081310       0.00000000 NULL       0.00252700       0.00585700      -0.00758900
P       -0.20415467       4.92435132       3.41811835       0.00000000 NULL       0.00252700      -0.00585700       0.00758900
P        2.15235888      -0.34684910       1.17446757       0.00000000 NULL       0.00041700      -0.00202400       0.00198100
P       -0.23963649       4.90359869      10.22446389       0.00000000 NULL       0.00041700       0.00202300      -0.00198100
P        2.15236369       4.90359650       1.17446757       0.00000000 NULL       0.00041800       0.00202400       0.00198000
P        4.54435906      -0.34685129      10.22446389       0.00000000 NULL       0.00041700      -0.00202300      -0.00198000
