16
Lattice="5.035597324430627 0.0 0.0 0.0 5.045121932648753 0.0 0.0 0.0 10.07311887527401" Properties=species:S:1:pos:R:3:initial_magmoms:R:1:castep_labels:S:1:forces:R:3 n_minim_iter=9 energy=-89.171208827722 stress="-0.00030553756256654845 -0.0 0.0 -0.0 9.16729916589235e-05 -0.0 0.0 -0.0 -0.00014040113343159082" free_energy=-89.171208827722 pbc="T T T"
P        3.69966490       2.58812091       6.22646229       0.00000000 NULL       0.00160200      -0.00174100      -0.00061100
P        3.69966490       2.45700102       3.84665659       0.00000000 NULL       0.00160200       0.00174100       0.00061100
P        3.69966490       0.06555994       3.84665659       0.00000000 NULL       0.00160200      -0.00174100       0.00061100
P        3.69966490       4.97956199       6.22646229       0.00000000 NULL       0.00160200       0.00174100      -0.00061100
P        1.29787516       4.95044642       8.88334865       0.00000000 NULL      -0.00192200       0.00035700       0.00098200
P        1.29787516       0.09467551       1.18977022       0.00000000 NULL      -0.00192200      -0.00035700      -0.00098200
P        1.29787516       2.42788545       1.18977022       0.00000000 NULL      -0.00192200       0.00035700      -0.00098200
P        1.29787516       2.61723648       8.88334865       0.00000000 NULL      -0.00192200      -0.00035700       0.00098200
P        1.28617350       4.97763353       6.22186636       0.00000000 NULL      -0.00157100       0.00078300       0.00292500
P        1.28617350       0.06748840       3.85125252       0.00000000 NULL      -0.00157100      -0.00078300      -0.00292500
P        1.28617350       2.45507257       3.85125252       0.00000000 NULL      -0.00157100       0.00078300      -0.00292500
P        1.28617350       2.59004937       6.22186636       0.00000000 NULL      -0.00157100      -0.00078300       0.00292500
P        3.68290406       2.61340380       1.19426933       0.00000000 NULL       0.00189100       0.00503000       0.00169600
P        3.68290406       2.43171813       8.87884955       0.00000000 NULL       0.00189100      -0.00503000      -0.00169600
P        3.68290406       0.09084283       8.87884955       0.00000000 NULL       0.00189100       0.00503000      -0.00169600
P        3.68290406       4.95427910       1.19426933       0.00000000 NULL       0.00189100      -0.00503000       0.00169600
