12
Lattice="3.3319680219346277 0.0 0.0 0.0 9.750635360843493 0.0 0.0 0.0 9.750635360843493" Properties=species:S:1:pos:R:3:initial_magmoms:R:1:castep_labels:S:1:forces:R:3 n_minim_iter=1 energy=-64.645980207538 stress="0.00157661406448451 0.0 0.0 0.0 0.008006749847993684 0.0 0.0 0.0 0.008006749847993684" free_energy=-64.645980207538 pbc="T T T"
P        3.06248496       2.75342740       1.24298713       0.00000000 NULL       0.19177400       0.10315700      -0.23779700
P        1.39650095       6.99720796       8.50764823       0.00000000 NULL       0.19177400      -0.10315700       0.23779700
P        2.22949295       1.24298713       6.99720796       0.00000000 NULL       0.19177400      -0.23779700      -0.10315700
P        0.56350894       8.50764823       2.75342740       0.00000000 NULL       0.19177400       0.23779700       0.10315700
P        2.44614397       9.27577184       5.48249056       0.00000000 NULL      -0.24666800       0.25356800       0.20005200
P        0.78015996       0.47486352       4.26814480       0.00000000 NULL      -0.24666800      -0.25356800      -0.20005200
P        1.61315196       5.48249056       0.47486352       0.00000000 NULL      -0.24666800       0.20005200      -0.25356800
P       -0.05283205       4.26814480       9.27577184       0.00000000 NULL      -0.24666800      -0.20005200       0.25356800
P        3.01828584       8.22004853      -0.31996544       0.00000000 NULL       0.05489300       0.26610300      -0.16739600
P        1.35230183       1.53058683      10.07060080       0.00000000 NULL       0.05489400      -0.26610300       0.16739600
P        2.18529384      -0.31996544       1.53058683       0.00000000 NULL       0.05489300      -0.16739600      -0.26610300
P        0.51930983      10.07060080       8.22004853       0.00000000 NULL       0.05489300       0.16739600       0.26610300
12
Lattice="3.32465303608659 0.0 0.0 0.0 9.642409217774922 0.0 0.0 0.0 9.642409217774922" Properties=species:S:1:pos:R:3:initial_magmoms:R:1:castep_labels:S:1:forces:R:3 n_minim_iter=2 energy=-64.679434919668 stress="-0.005111138801024035 0.0 0.0 0.0 0.00012529394258168822 0.0 0.0 0.0 0.00012529394258168822" free_energy=-64.679434919668 pbc="T T T"
P        3.05660363       2.72331492       1.22815592       0.00000000 NULL       0.17825900       0.13072100      -0.01410700
P        1.39427712       6.91909430       8.41425330       0.00000000 NULL       0.17825900      -0.13072100       0.01410700
P        2.22544037       1.22815592       6.91909430       0.00000000 NULL       0.17825900      -0.01410700      -0.13072100
P        0.56311386       8.41425330       2.72331492       0.00000000 NULL       0.17825900       0.01410700       0.13072100
P        2.43969065       9.17391983       5.42250879       0.00000000 NULL      -0.24034500       0.01963300       0.22768800
P        0.77736413       0.46848939       4.21990043       0.00000000 NULL      -0.24034500      -0.01963300      -0.22768800
P        1.60852739       5.42250879       0.46848939       0.00000000 NULL      -0.24034500       0.22768800      -0.01963300
P       -0.05379913       4.21990043       9.17391983       0.00000000 NULL      -0.24034500      -0.22768800       0.01963300
P        3.01190054       8.12996895      -0.31714246       0.00000000 NULL       0.06208600       0.28457900      -0.14899200
P        1.34957402       1.51244027       9.95955168       0.00000000 NULL       0.06208600      -0.28457900       0.14899200
P        2.18073728      -0.31714246       1.51244027       0.00000000 NULL       0.06208600      -0.14899200      -0.28457900
P        0.51841076       9.95955168       8.12996895       0.00000000 NULL       0.06208600       0.14899200       0.28457900
12
Lattice="3.3667623510544424 0.0 0.0 0.0 9.593608003154467 0.0 0.0 0.0 9.593608003154467" Properties=species:S:1:pos:R:3:initial_magmoms:R:1:castep_labels:S:1:forces:R:3 n_minim_iter=3 energy=-64.69489776388 stress="0.0019054904312807012 0.0 0.0 0.0 -0.0006681883204279264 0.0 0.0 0.0 -0.0006681883204279264" free_energy=-64.69489776388 pbc="T T T"
P        3.09721820       2.71081013       1.22138518       0.00000000 NULL       0.19515800       0.05366200       0.00359400
P        1.41383702       6.88279788       8.37222282       0.00000000 NULL       0.19516000      -0.05366100      -0.00359400
P        2.25552761       1.22138518       6.88279788       0.00000000 NULL       0.19515800       0.00359400      -0.05366200
P        0.57214644       8.37222282       2.71081013       0.00000000 NULL       0.19516000      -0.00359400       0.05366200
P        2.46805154       9.12811963       5.39732872       0.00000000 NULL      -0.24339100       0.01715700       0.14529100
P        0.78467037       0.46548837       4.19627929       0.00000000 NULL      -0.24338900      -0.01715700      -0.14529100
P        1.62636095       5.39732872       0.46548837       0.00000000 NULL      -0.24338900       0.14529100      -0.01715700
P       -0.05702022       4.19627929       9.12811963       0.00000000 NULL      -0.24339100      -0.14529100       0.01715700
P        3.05068798       8.09168135      -0.31708586       0.00000000 NULL       0.04822900       0.23655900      -0.18694300
P        1.36730680       1.50192666       9.91069386       0.00000000 NULL       0.04823200      -0.23655900       0.18694200
P        2.20899739      -0.31708586       1.50192666       0.00000000 NULL       0.04823000      -0.18694300      -0.23655900
P        0.52561621       9.91069386       8.09168135       0.00000000 NULL       0.04823200       0.18694300       0.23655900
12
Lattice="3.351880797672534 0.0 0.0 0.0 9.617955338693726 0.0 0.0 0.0 9.617955338693726" Properties=species:S:1:pos:R:3:initial_magmoms:R:1:castep_labels:S:1:forces:R:3 n_minim_iter=4 energy=-64.773536905822 stress="0.00045290365191474365 -0.0 -0.0 -0.0 -0.0008129560887143021 -0.0 -0.0 -0.0 -0.0008129560887143021" free_energy=-64.773536905822 pbc="T T T"
P        3.10875633       2.72729413       1.22294964       0.00000000 NULL       0.02104300      -0.08921500       0.07768100
P        1.43281593       6.89066121       8.39500569       0.00000000 NULL       0.02104100       0.08921500      -0.07768100
P        2.27078613       1.22294964       6.89066121       0.00000000 NULL       0.02104300       0.07768100       0.08921500
P        0.59484573       8.39500569       2.72729413       0.00000000 NULL       0.02104100      -0.07768100      -0.08921500
P        2.42503280       9.15493344       5.43247195       0.00000000 NULL      -0.16527000       0.01630300      -0.10099100
P        0.74909240       0.46302190       4.18548339       0.00000000 NULL      -0.16527100      -0.01630300       0.10099100
P        1.58706260       5.43247195       0.46302190       0.00000000 NULL      -0.16527100      -0.10099100      -0.01630300
P       -0.08887780       4.18548339       9.15493344       0.00000000 NULL      -0.16527000       0.10099100       0.01630300
P        3.04408484       8.14399114      -0.34028766       0.00000000 NULL       0.14422900       0.01066600      -0.21016500
P        1.36814444       1.47396420       9.95824299       0.00000000 NULL       0.14422800      -0.01066600       0.21016500
P        2.20611464      -0.34028766       1.47396420       0.00000000 NULL       0.14422900      -0.21016500      -0.01066600
P        0.53017424       9.95824299       8.14399114       0.00000000 NULL       0.14422800       0.21016500       0.01066500
12
Lattice="3.372544906461829 0.0 0.0 0.0 9.609165775143607 0.0 0.0 0.0 9.609165775143607" Properties=species:S:1:pos:R:3:initial_magmoms:R:1:castep_labels:S:1:forces:R:3 n_minim_iter=5 energy=-64.86432847014 stress="0.0019153035623361047 -0.0 0.0 -0.0 -0.00039488444614792906 -0.0 0.0 -0.0 -0.00039488444614792906" free_energy=-64.86432847014 pbc="T T T"
P        3.14725972       2.71069924       1.23453212       0.00000000 NULL       0.00493800       0.00249800       0.06979000
P        1.46098727       6.89846654       8.37463366       0.00000000 NULL       0.00493700      -0.00249900      -0.06979000
P        2.30412349       1.23453212       6.89846654       0.00000000 NULL       0.00493800       0.06979000      -0.00249800
P        0.61785104       8.37463366       2.71069924       0.00000000 NULL       0.00493700      -0.06979000       0.00249800
P        2.37884648       9.15798403       5.41744478       0.00000000 NULL      -0.05233000      -0.02896600       0.10263700
P        0.69257402       0.45118175       4.19172100       0.00000000 NULL      -0.05233100       0.02896600      -0.10263700
P        1.53571025       5.41744478       0.45118175       0.00000000 NULL      -0.05233100       0.10263700       0.02896600
P       -0.15056220       4.19172100       9.15798403       0.00000000 NULL      -0.05233000      -0.10263700      -0.02896600
P        3.10464974       8.15885349      -0.40371002       0.00000000 NULL       0.04739300      -0.05020500      -0.14946700
P        1.41837728       1.45031229      10.01287579       0.00000000 NULL       0.04739200       0.05020500       0.14946700
P        2.26151351      -0.40371002       1.45031229       0.00000000 NULL       0.04739300      -0.14946700       0.05020500
P        0.57524106      10.01287579       8.15885349       0.00000000 NULL       0.04739200       0.14946700      -0.05020500
12
Lattice="3.369981177826948 0.0 0.0 0.0 9.587788290446266 0.0 0.0 0.0 9.587788290446266" Properties=species:S:1:pos:R:3:initial_magmoms:R:1:castep_labels:S:1:forces:R:3 n_minim_iter=6 energy=-64.88716227022 stress="0.0017231795956876962 0.0 -0.0 0.0 -0.0001534276089000716 0.0 -0.0 0.0 -0.0001534276089000716" free_energy=-64.88716227022 pbc="T T T"
P        3.14528420       2.70500626       1.24526339       0.00000000 NULL       0.04330800       0.07921300       0.13287000
P        1.46029362       6.88278203       8.34252490       0.00000000 NULL       0.04330900      -0.07921300      -0.13287000
P        2.30278891       1.24526339       6.88278203       0.00000000 NULL       0.04330800       0.13287000      -0.07921300
P        0.61779832       8.34252490       2.70500626       0.00000000 NULL       0.04330900      -0.13286900       0.07921300
P        2.35938626       9.13532929       5.42344287       0.00000000 NULL      -0.02045200       0.04947700      -0.12631500
P        0.67439567       0.45245900       4.16434542       0.00000000 NULL      -0.02045100      -0.04947700       0.12631500
P        1.51689096       5.42344287       0.45245900       0.00000000 NULL      -0.02045100      -0.12631500      -0.04947700
P       -0.16809963       4.16434542       9.13532929       0.00000000 NULL      -0.02045200       0.12631500       0.04947700
P        3.11952449       8.13435235      -0.43782503       0.00000000 NULL      -0.02285800       0.13554300      -0.07559000
P        1.43453390       1.45343594      10.02561332       0.00000000 NULL      -0.02285600      -0.13554300       0.07559000
P        2.27702920      -0.43782503       1.45343594       0.00000000 NULL      -0.02285700      -0.07559000      -0.13554300
P        0.59203861      10.02561332       8.13435235       0.00000000 NULL      -0.02285600       0.07559000       0.13554300
12
Lattice="3.357176336841482 0.0 0.0 0.0 9.506210055991355 0.0 0.0 0.0 9.506210055991355" Properties=species:S:1:pos:R:3:initial_magmoms:R:1:castep_labels:S:1:forces:R:3 n_minim_iter=7 energy=-64.938026486019 stress="0.0004315360469392041 0.0 -0.0 0.0 -2.8940471220029116e-05 0.0 -0.0 0.0 -2.8940471220029116e-05" free_energy=-64.938026486019 pbc="T T T"
P        3.13459954       2.71081771       1.29674142       0.00000000 NULL       0.08946000      -0.06004700       0.07923700
P        1.45601138       6.79539234       8.20946863       0.00000000 NULL       0.08946300       0.06004700      -0.07923700
P        2.29530546       1.29674142       6.79539234       0.00000000 NULL       0.08946000       0.07923700       0.06004700
P        0.61671729       8.20946863       2.71081771       0.00000000 NULL       0.08946300      -0.07923700      -0.06004700
P        2.32878872       9.06248541       5.38578299       0.00000000 NULL       0.01228800       0.05314500      -0.03882500
P        0.65020055       0.44372465       4.12042707       0.00000000 NULL       0.01229000      -0.05314500       0.03882500
P        1.48949464       5.38578299       0.44372465       0.00000000 NULL       0.01229000      -0.03882500      -0.05314500
P       -0.18909353       4.12042707       9.06248541       0.00000000 NULL       0.01228900       0.03882500       0.05314500
P        3.12803744       8.07833793      -0.50840080       0.00000000 NULL      -0.10175200       0.05978800      -0.08416200
P        1.44944927       1.42787213      10.01461086       0.00000000 NULL      -0.10175000      -0.05978800       0.08416200
P        2.28874336      -0.50840080       1.42787213       0.00000000 NULL      -0.10175200      -0.08416200      -0.05978800
P        0.61015519      10.01461086       8.07833793       0.00000000 NULL      -0.10175000       0.08416200       0.05978800
12
Lattice="3.364158238247836 0.0 0.0 0.0 9.426881783139466 0.0 0.0 0.0 9.426881783139466" Properties=species:S:1:pos:R:3:initial_magmoms:R:1:castep_labels:S:1:forces:R:3 n_minim_iter=8 energy=-64.968118149891 stress="0.000906142455173982 0.0 -0.0 0.0 0.0008719572359348603 -0.0 -0.0 -0.0 0.0008719572359348603" free_energy=-64.968118149891 pbc="T T T"
P        3.15978610       2.68893737       1.34557604       0.00000000 NULL      -0.15455400       0.01684600       0.05051500
P        1.47770698       6.73794441       8.08130574       0.00000000 NULL      -0.15455300      -0.01684600      -0.05051500
P        2.31874654       1.34557604       6.73794441       0.00000000 NULL      -0.15455500       0.05051500      -0.01684600
P        0.63666742       8.08130574       2.68893737       0.00000000 NULL      -0.15455300      -0.05051500       0.01684600
P        2.32222454       8.99853018       5.35091600       0.00000000 NULL       0.04676100       0.09794200       0.01404700
P        0.64014543       0.42835161       4.07596579       0.00000000 NULL       0.04676300      -0.09794200      -0.01404700
P        1.48118498       5.35091600       0.42835161       0.00000000 NULL       0.04676300       0.01404700      -0.09794200
P       -0.20089413       4.07596579       8.99853018       0.00000000 NULL       0.04676100      -0.01404700       0.09794200
P        3.12728243       8.02020276      -0.58062816       0.00000000 NULL       0.10779100       0.15037200       0.02392600
P        1.44520331       1.40667902      10.00750994       0.00000000 NULL       0.10779300      -0.15037200      -0.02392700
P        2.28624287      -0.58062816       1.40667902       0.00000000 NULL       0.10779100       0.02392600      -0.15037200
P        0.60416375      10.00750994       8.02020276       0.00000000 NULL       0.10779300      -0.02392600       0.15037200
12
Lattice="3.3598753309993397 0.0 0.0 0.0 9.368787588677678 0.0 0.0 0.0 9.368787588677678" Properties=species:S:1:pos:R:3:initial_magmoms:R:1:castep_labels:S:1:forces:R:3 n_minim_iter=9 energy=-64.996633534092 stress="0.0008450026954193696 0.0 -0.0 0.0 0.0014364706735975423 -0.0 -0.0 -0.0 0.0014364706735975423" free_energy=-64.996633534092 pbc="T T T"
P        3.14625713       2.65913208       1.40142505       0.00000000 NULL      -0.06140300       0.09263000      -0.01610400
P        1.46631946       6.70965551       7.96736254       0.00000000 NULL      -0.06140100      -0.09263000       0.01610400
P        2.30628830       1.40142505       6.70965551       0.00000000 NULL      -0.06140300      -0.01610400      -0.09263000
P        0.62635063       7.96736254       2.65913208       0.00000000 NULL      -0.06140100       0.01610400       0.09263000
P        2.32037614       8.96936736       5.34214585       0.00000000 NULL       0.03013900       0.11039700      -0.07599900
P        0.64043848       0.39942023       4.02664174       0.00000000 NULL       0.03014100      -0.11039700       0.07599900
P        1.48040731       5.34214585       0.39942023       0.00000000 NULL       0.03014100      -0.07599900      -0.11039700
P       -0.19953036       4.02664174       8.96936736       0.00000000 NULL       0.03013900       0.07599900       0.11039700
P        3.13169915       8.00297551      -0.64638824       0.00000000 NULL       0.03126100       0.03804200       0.01059500
P        1.45176149       1.36581208      10.01517583       0.00000000 NULL       0.03126400      -0.03804200      -0.01059500
P        2.29173032      -0.64638824       1.36581208       0.00000000 NULL       0.03126100       0.01059400      -0.03804200
P        0.61179266      10.01517583       8.00297551       0.00000000 NULL       0.03126400      -0.01059500       0.03804200
12
Lattice="3.3598919023089 0.0 0.0 0.0 9.377320109717465 0.0 0.0 0.0 9.377320109717465" Properties=species:S:1:pos:R:3:initial_magmoms:R:1:castep_labels:S:1:forces:R:3 n_minim_iter=10 energy=-64.999348312665 stress="0.0009967873283827314 -0.0 0.0 -0.0 0.0017457147720202424 0.0 0.0 0.0 0.0017457147720202424" free_energy=-64.999348312665 pbc="T T T"
P        3.14391179       2.66627084       1.40763777       0.00000000 NULL      -0.04907100       0.04345100       0.01367800
P        1.46396584       6.71104927       7.96968234       0.00000000 NULL      -0.04907200      -0.04345100      -0.01367800
P        2.30393881       1.40763777       6.71104927       0.00000000 NULL      -0.04907100       0.01367800      -0.04345100
P        0.62399286       7.96968234       2.66627084       0.00000000 NULL      -0.04907200      -0.01367800       0.04345100
P        2.32268206       8.98867305       5.34888236       0.00000000 NULL       0.02301800       0.02722500      -0.06800300
P        0.64273611       0.38864706       4.02843775       0.00000000 NULL       0.02301700      -0.02722500       0.06800300
P        1.48270909       5.34888236       0.38864706       0.00000000 NULL       0.02301700      -0.06800300      -0.02722500
P       -0.19723686       4.02843775       8.98867305       0.00000000 NULL       0.02301800       0.06800300       0.02722500
P        3.13178101       8.01067945      -0.65838948       0.00000000 NULL       0.02605500       0.06014800       0.03580200
P        1.45183506       1.36664066      10.03570959       0.00000000 NULL       0.02605400      -0.06014800      -0.03580200
P        2.29180803      -0.65838948       1.36664066       0.00000000 NULL       0.02605500       0.03580200      -0.06014800
P        0.61186208      10.03570959       8.01067945       0.00000000 NULL       0.02605400      -0.03580200       0.06014800
12
Lattice="3.3564074173612277 0.0 0.0 0.0 9.290914682182208 0.0 0.0 0.0 9.290914682182208" Properties=species:S:1:pos:R:3:initial_magmoms:R:1:castep_labels:S:1:forces:R:3 n_minim_iter=11 energy=-65.00287293493 stress="-0.0006674518851475116 0.0 -0.0 0.0 -0.0006452587130433721 0.0 -0.0 0.0 -0.0006452587130433721" free_energy=-65.00287293493 pbc="T T T"
P        3.13036594       2.65572314       1.42874766       0.00000000 NULL       0.02163500      -0.01651200       0.00212200
P        1.45216223       6.63519154       7.86216702       0.00000000 NULL       0.02163700       0.01651200      -0.00212200
P        2.29126408       1.42874766       6.63519154       0.00000000 NULL       0.02163400       0.00212200       0.01651200
P        0.61306037       7.86216702       2.65572314       0.00000000 NULL       0.02163700      -0.00212200      -0.01651200
P        2.33227395       8.90621540       5.29946639       0.00000000 NULL      -0.01053400       0.01137000       0.03289100
P        0.65407024       0.38469928       3.99144829       0.00000000 NULL      -0.01053200      -0.01137000      -0.03289100
P        1.49317209       5.29946639       0.38469928       0.00000000 NULL      -0.01053200       0.03289100      -0.01137000
P       -0.18503162       3.99144829       8.90621540       0.00000000 NULL      -0.01053400      -0.03289100       0.01137000
P        3.12681816       7.94322671      -0.67881580       0.00000000 NULL      -0.01110400      -0.01379200       0.00795400
P        1.44861446       1.34768798       9.96973048       0.00000000 NULL      -0.01110100       0.01379200      -0.00795400
P        2.28771631      -0.67881580       1.34768798       0.00000000 NULL      -0.01110400       0.00795400       0.01379200
P        0.60951260       9.96973048       7.94322671       0.00000000 NULL      -0.01110100      -0.00795400      -0.01379200
12
Lattice="3.357276617764552 0.0 0.0 0.0 9.305736804326704 0.0 0.0 0.0 9.305736804326704" Properties=species:S:1:pos:R:3:initial_magmoms:R:1:castep_labels:S:1:forces:R:3 n_minim_iter=12 energy=-65.003964316225 stress="-0.0003436530756962014 -0.0 0.0 -0.0 -0.0003664234026015047 -0.0 0.0 -0.0 -0.0003664234026015047" free_energy=-65.003964316225 pbc="T T T"
P        3.13439880       2.65637302       1.42837832       0.00000000 NULL       0.00686800      -0.00812800      -0.01038200
P        1.45576050       6.64936378       7.87735848       0.00000000 NULL       0.00686600       0.00812800       0.01038200
P        2.29507965       1.42837832       6.64936378       0.00000000 NULL       0.00686800      -0.01038100       0.00812800
P        0.61644134       7.87735848       2.65637302       0.00000000 NULL       0.00686600       0.01038200      -0.00812800
P        2.32925207       8.92467199       5.30904242       0.00000000 NULL       0.00097900      -0.00843300       0.01434400
P        0.65061376       0.38106482       3.99669439       0.00000000 NULL       0.00097600       0.00843300      -0.01434400
P        1.48993291       5.30904242       0.38106482       0.00000000 NULL       0.00097600       0.01434400       0.00843300
P       -0.18870539       3.99669439       8.92467199       0.00000000 NULL       0.00097900      -0.01434400      -0.00843300
P        3.12803171       7.95268007      -0.66736799       0.00000000 NULL      -0.00784300      -0.00809500      -0.01354900
P        1.44939340       1.35305673       9.97310479       0.00000000 NULL      -0.00784600       0.00809500       0.01354900
P        2.28871255      -0.66736799       1.35305673       0.00000000 NULL      -0.00784300      -0.01354900       0.00809500
P        0.61007424       9.97310479       7.95268007       0.00000000 NULL      -0.00784600       0.01354900      -0.00809500
12
Lattice="3.3584723535342205 0.0 0.0 0.0 9.32198093356264 0.0 0.0 0.0 9.32198093356264" Properties=species:S:1:pos:R:3:initial_magmoms:R:1:castep_labels:S:1:forces:R:3 n_minim_iter=13 energy=-65.004410157535 stress="1.6344070250157106e-05 0.0 -0.0 0.0 -6.304630872178003e-05 -0.0 -0.0 -0.0 -6.304630872178003e-05" free_energy=-65.004410157535 pbc="T T T"
P        3.13579626       2.65854416       1.42208183       0.00000000 NULL      -0.00066600       0.00124300      -0.00063100
P        1.45656008       6.66343678       7.89989911       0.00000000 NULL      -0.00066400      -0.00124300       0.00063100
P        2.29617817       1.42208183       6.66343678       0.00000000 NULL      -0.00066600      -0.00063100      -0.00124300
P        0.61694200       7.89989911       2.65854416       0.00000000 NULL      -0.00066400       0.00063100       0.00124300
P        2.33060109       8.93868289       5.31758903       0.00000000 NULL       0.00015100      -0.00386600       0.00103100
P        0.65136491       0.38329804       4.00439190       0.00000000 NULL       0.00015400       0.00386700      -0.00103100
P        1.49098300       5.31758903       0.38329804       0.00000000 NULL       0.00015400       0.00103100       0.00386600
P       -0.18825318       4.00439190       8.93868289       0.00000000 NULL       0.00015100      -0.00103100      -0.00386600
P        3.12834529       7.96704386      -0.66588154       0.00000000 NULL       0.00051100      -0.00245800      -0.00167600
P        1.44910911       1.35493707       9.98786248       0.00000000 NULL       0.00051400       0.00245800       0.00167600
P        2.28872720      -0.66588154       1.35493707       0.00000000 NULL       0.00051100      -0.00167600       0.00245800
P        0.60949102       9.98786248       7.96704386       0.00000000 NULL       0.00051400       0.00167600      -0.00245800
