22
Lattice="4.32711 -2.880858301755781e-16 -3.9194953303617266e-16 -0.8012433005065401 10.92539874059493 5.317558135071769e-16 -0.8012433005065408 -4.404984215844583 9.99802238941049" Properties=species:S:1:pos:R:3:initial_magmoms:R:1:castep_labels:S:1 n_minim_iter=1 pbc="T T T"
P       -0.08358435       7.46761277       3.82084824       0.00000000 NULL
P        2.80820775       6.03473799       1.62376183       0.00000000 NULL
P        2.40491946       1.55496626       0.71279001       0.00000000 NULL
P        0.31970394       6.49507095       8.28765770       0.00000000 NULL
P        0.56147952       4.63010900       7.36564307       0.00000000 NULL
P        2.16314388       1.64678854       2.79119390       0.00000000 NULL
P        2.52033972       6.28979696       3.73331555       0.00000000 NULL
P        0.20428368       5.63996006       2.73689364       0.00000000 NULL
P        0.82423265      -0.07004903       2.27047390       0.00000000 NULL
P        1.90039075       4.41442148       9.14669878       0.00000000 NULL
P        1.72495863       5.87710904       6.30108564       0.00000000 NULL
P        0.99966477       3.12375838       2.07925873       0.00000000 NULL
P        2.60107013       8.85241301       1.89544408       0.00000000 NULL
P        0.12355327       8.35504297       1.13280594       0.00000000 NULL
P        3.74942503       4.26274298       1.40093489       0.00000000 NULL
P       -1.02480163       6.95707934       5.53227272       0.00000000 NULL
P        0.31547496       1.68063991       9.08788641       0.00000000 NULL
P        2.40914844      -1.11845537       4.79591737       0.00000000 NULL
P        1.17168371      -0.37055142       6.18472766       0.00000000 NULL
P        1.55293969       0.71126099       7.84351555       0.00000000 NULL
P        2.54840451       6.30587555       8.93877491       0.00000000 NULL
P        0.17621889       0.88283636       0.62340370       0.00000000 NULL
22
Lattice="4.34166260026933 -8.431329147580176e-05 -0.00012928107142570538 -0.8041508600091308 10.966271608044327 0.0006599899728560954 -0.8041508600091315 -4.420859676828998 10.0356919609349" Properties=species:S:1:pos:R:3:initial_magmoms:R:1:castep_labels:S:1 n_minim_iter=2 pbc="T T T"
P       -0.08383285       7.49614814       3.83561775       0.00000000 NULL
P        2.81719373       6.05764035       1.62989402       0.00000000 NULL
P        2.41294658       1.56086526       0.71538157       0.00000000 NULL
P        0.32041430       6.51999086       8.31941483       0.00000000 NULL
P        0.56286095       4.64750023       7.39386261       0.00000000 NULL
P        2.17049993       1.65288936       2.80210140       0.00000000 NULL
P        2.52830693       6.31329993       3.74775636       0.00000000 NULL
P        0.20505395       5.66113422       2.74776359       0.00000000 NULL
P        0.82694277      -0.07043486       2.27924599       0.00000000 NULL
P        1.90641811       4.43115153       9.18171535       0.00000000 NULL
P        1.73044956       5.89951581       6.32515762       0.00000000 NULL
P        1.00291132       3.13567692       2.08724867       0.00000000 NULL
P        2.60954245       8.88565438       1.90311885       0.00000000 NULL
P        0.12381843       8.38633525       1.13749209       0.00000000 NULL
P        3.76183478       4.27841381       1.40616727       0.00000000 NULL
P       -1.02847390       6.98352247       5.55402273       0.00000000 NULL
P        0.31619121       1.68747199       9.12246578       0.00000000 NULL
P        2.41716967      -1.12243185       4.81392353       0.00000000 NULL
P        1.17525871      -0.37166304       6.20807339       0.00000000 NULL
P        1.55810217       0.71436181       7.87332039       0.00000000 NULL
P        2.55662771       6.33005664       8.97279497       0.00000000 NULL
P        0.17673317       0.88636662       0.62575898       0.00000000 NULL
22
Lattice="4.520325258617085 -0.0012892450200880706 -0.0019768529327922157 -0.8402758065998372 11.479161382318852 0.003671036454053397 -0.840275806599837 -4.624894962216799 10.506260329265162" Properties=species:S:1:pos:R:3:initial_magmoms:R:1:castep_labels:S:1 n_minim_iter=3 pbc="T T T"
P       -0.08723855       7.85261726       4.01549393       0.00000000 NULL
P        2.92701220       6.34440598       1.70289093       0.00000000 NULL
P        2.51137552       1.63454742       0.74669899       0.00000000 NULL
P        0.32839812       6.82868904       8.71109205       0.00000000 NULL
P        0.57906307       4.86199106       7.74263312       0.00000000 NULL
P        2.26071058       1.72785298       2.93692905       0.00000000 NULL
P        2.62550123       6.60620345       3.92417380       0.00000000 NULL
P        0.21427241       5.92543615       2.88032503       0.00000000 NULL
P        0.86003646      -0.07657309       2.38837111       0.00000000 NULL
P        1.97973719       4.63646393       9.61506650       0.00000000 NULL
P        1.79719463       6.17759438       6.62154122       0.00000000 NULL
P        1.04257902       3.28421850       2.18500781       0.00000000 NULL
P        2.71321324       9.30176368       1.99413891       0.00000000 NULL
P        0.12656041       8.77846084       1.19173692       0.00000000 NULL
P        3.91384736       4.47406856       1.46885610       0.00000000 NULL
P       -1.07407372       7.31268994       5.82143215       0.00000000 NULL
P        0.32439599       1.76866703       9.55155067       0.00000000 NULL
P        2.51537765      -1.17470851       5.03835071       0.00000000 NULL
P        1.21866101      -0.38869181       6.49842767       0.00000000 NULL
P        1.62111263       0.74943733       8.24356834       0.00000000 NULL
P        2.65682074       6.62906972       9.39256557       0.00000000 NULL
P        0.18295291       0.93043514       0.65461250       0.00000000 NULL
22
Lattice="4.536814883804847 -0.00309658653041399 -0.004748124731074225 -0.8478924672279006 11.65530115742438 -0.05000654883916639 -0.8478924672279001 -4.745033609771725 10.645806769208322" Properties=species:S:1:pos:R:3:initial_magmoms:R:1:castep_labels:S:1 n_minim_iter=4 pbc="T T T"
P       -0.09151705       7.95768280       4.02094613       0.00000000 NULL
P        2.93254700       6.43597147       1.68764296       0.00000000 NULL
P        2.51904872       1.65589179       0.74599325       0.00000000 NULL
P        0.32198123       6.89213444       8.77494157       0.00000000 NULL
P        0.57337620       4.89786394       7.80728418       0.00000000 NULL
P        2.26765375       1.73734696       2.96113224       0.00000000 NULL
P        2.62852166       6.68640732       3.93526091       0.00000000 NULL
P        0.21250829       6.00182113       2.88555646       0.00000000 NULL
P        0.86109595      -0.09141540       2.41543214       0.00000000 NULL
P        1.97993400       4.65990946       9.70083587       0.00000000 NULL
P        1.79647385       6.24092615       6.66493772       0.00000000 NULL
P        1.04455610       3.32423396       2.19265247       0.00000000 NULL
P        2.71989851       9.43392120       1.97004821       0.00000000 NULL
P        0.12113144       8.90798470       1.16360793       0.00000000 NULL
P        3.92435401       4.53176840       1.46023619       0.00000000 NULL
P       -1.08332406       7.39803580       5.85520305       0.00000000 NULL
P        0.31938465       1.74958997       9.64875183       0.00000000 NULL
P        2.52164530      -1.21715682       5.09971575       0.00000000 NULL
P        1.21785498      -0.42644811       6.57107076       0.00000000 NULL
P        1.62317497       0.72193128       8.33192859       0.00000000 NULL
P        2.65829587       6.68547675       9.46312001       0.00000000 NULL
P        0.18273408       0.94280593       0.65764435       0.00000000 NULL
22
Lattice="4.515333991589018 -0.00521035630968038 -0.00798925572036109 -0.8492518864956011 11.777211346262865 -0.12750094383730123 -0.8492518864956007 -4.865102742713769 10.72612413167316" Properties=species:S:1:pos:R:3:initial_magmoms:R:1:castep_labels:S:1 n_minim_iter=5 pbc="T T T"
P       -0.09613559       8.01805684       3.98312147       0.00000000 NULL
P        2.91296581       6.49465483       1.64722589       0.00000000 NULL
P        2.50517372       1.66791994       0.73739610       0.00000000 NULL
P        0.31165650       6.90457873       8.76698250       0.00000000 NULL
P        0.56188852       4.89483953       7.81176851       0.00000000 NULL
P        2.25494170       1.73175116       2.96167373       0.00000000 NULL
P        2.60868957       6.72680055       3.90658661       0.00000000 NULL
P        0.20814065       6.04407481       2.85973487       0.00000000 NULL
P        0.85421576      -0.11093305       2.42640198       0.00000000 NULL
P        1.96261446       4.64172878       9.71385575       0.00000000 NULL
P        1.77898606       6.26106350       6.65226285       0.00000000 NULL
P        1.03784416       3.34367937       2.17891661       0.00000000 NULL
P        2.70381878       9.51781560       1.91269412       0.00000000 NULL
P        0.11301144       8.99402288       1.10954099       0.00000000 NULL
P        3.90114566       4.56484319       1.43208799       0.00000000 NULL
P       -1.08431544       7.43685735       5.83586657       0.00000000 NULL
P        0.31071651       1.70169700       9.67911835       0.00000000 NULL
P        2.50611371      -1.26452832       5.13088188       0.00000000 NULL
P        1.20591779      -0.47604176       6.60135524       0.00000000 NULL
P        1.61091243       0.67394918       8.36468411       0.00000000 NULL
P        2.63580055       6.69016039       9.45788780       0.00000000 NULL
P        0.18102967       0.94920970       0.65504967       0.00000000 NULL
22
Lattice="4.452264980943324 -0.009117450837491338 -0.013980166024962035 -0.8474384228637785 11.955346407758181 -0.2785180185424964 -0.8474384228637778 -5.075122924378667 10.828250427404955" Properties=species:S:1:pos:R:3:initial_magmoms:R:1:castep_labels:S:1 n_minim_iter=6 pbc="T T T"
P       -0.10409587       8.09636947       3.88809921       0.00000000 NULL
P        2.86148401       6.57739380       1.55899074       0.00000000 NULL
P        2.46612812       1.68352298       0.71766003       0.00000000 NULL
P        0.29126001       6.89313829       8.70577953       0.00000000 NULL
P        0.53800733       4.86390239       7.78149011       0.00000000 NULL
P        2.21938080       1.71119376       2.94731103       0.00000000 NULL
P        2.55839157       6.77099147       3.83046584       0.00000000 NULL
P        0.19899656       6.09575926       2.79510425       0.00000000 NULL
P        0.83634582      -0.14812390       2.43469952       0.00000000 NULL
P        1.92104232       4.58334845       9.68966259       0.00000000 NULL
P        1.73641556       6.26805776       6.59420223       0.00000000 NULL
P        1.02097258       3.36383944       2.14104367       0.00000000 NULL
P        2.66060749       9.63398270       1.79077871       0.00000000 NULL
P        0.09678064       9.11663470       0.99750754       0.00000000 NULL
P        3.83737637       4.60639131       1.36967381       0.00000000 NULL
P       -1.07998824       7.47493311       5.76812809       0.00000000 NULL
P        0.29312460       1.59888618       9.68880548       0.00000000 NULL
P        2.46426354      -1.35063743       5.16617843       0.00000000 NULL
P        1.17688162      -0.57058384       6.62659191       0.00000000 NULL
P        1.58050651       0.57694427       8.38614442       0.00000000 NULL
P        2.58001896       6.66368454       9.39964896       0.00000000 NULL
P        0.17736918       0.95603813       0.64787766       0.00000000 NULL
22
Lattice="4.407755180271593 -0.01397302783803544 -0.021425423896324923 -0.8514563321037785 12.087656085005328 -0.3805834970702578 -0.8514563321037777 -5.221870426913877 10.908177788802812" Properties=species:S:1:pos:R:3:initial_magmoms:R:1:castep_labels:S:1 n_minim_iter=7 pbc="T T T"
P       -0.11361959       8.16629833       3.82262078       0.00000000 NULL
P        2.81846211       6.64621529       1.49181434       0.00000000 NULL
P        2.43532419       1.69829388       0.70552796       0.00000000 NULL
P        0.26951833       6.89090260       8.66757055       0.00000000 NULL
P        0.51327995       4.84486396       7.77269066       0.00000000 NULL
P        2.19156256       1.69227683       2.93869788       0.00000000 NULL
P        2.51515192       6.80226284       3.77939286       0.00000000 NULL
P        0.18969059       6.13581185       2.75749589       0.00000000 NULL
P        0.81902402      -0.17467925       2.43962439       0.00000000 NULL
P        1.88581849       4.54884143       9.68239482       0.00000000 NULL
P        1.69463824       6.27681286       6.56203735       0.00000000 NULL
P        1.01020427       3.37751062       2.11641682       0.00000000 NULL
P        2.62670918       9.72364751       1.70754478       0.00000000 NULL
P        0.07813334       9.20966185       0.91942922       0.00000000 NULL
P        3.78581048       4.63369437       1.32230721       0.00000000 NULL
P       -1.08096796       7.50999396       5.73265683       0.00000000 NULL
P        0.27357027       1.52829737       9.70277788       0.00000000 NULL
P        2.43127225      -1.41117774       5.19555860       0.00000000 NULL
P        1.14756403      -0.63678343       6.64712774       0.00000000 NULL
P        1.55727849       0.51216732       8.40886164       0.00000000 NULL
P        2.52942029       6.64495441       9.36666321       0.00000000 NULL
P        0.17542223       0.95937880       0.64873400       0.00000000 NULL
22
Lattice="4.39230716897105 -0.018469228778946384 -0.028319635530245118 -0.8599481829087231 12.069302974345078 -0.4101759160505232 -0.8599481829087223 -5.241551219336812 10.879451244603827" Properties=species:S:1:pos:R:3:initial_magmoms:R:1:castep_labels:S:1 n_minim_iter=8 pbc="T T T"
P       -0.12244862       8.15960454       3.77635926       0.00000000 NULL
P        2.79485943       6.64332106       1.45137882       0.00000000 NULL
P        2.41984045       1.69908043       0.69945808       0.00000000 NULL
P        0.25257035       6.85424427       8.60408489       0.00000000 NULL
P        0.49396094       4.81101482       7.73706824       0.00000000 NULL
P        2.17844987       1.66869787       2.91882316       0.00000000 NULL
P        2.49076582       6.77133820       3.73943705       0.00000000 NULL
P        0.18164498       6.11737758       2.73669207       0.00000000 NULL
P        0.80616881      -0.18383234       2.42475763       0.00000000 NULL
P        1.86624200       4.51622575       9.63155190       0.00000000 NULL
P        1.66352037       6.24510003       6.52091400       0.00000000 NULL
P        1.00889043       3.35982700       2.09680503       0.00000000 NULL
P        2.61000487       9.70671683       1.67063780       0.00000000 NULL
P        0.06240593       9.19407972       0.88459004       0.00000000 NULL
P        3.75844564       4.61243983       1.29186272       0.00000000 NULL
P       -1.08603484       7.48675458       5.69916889       0.00000000 NULL
P        0.25732838       1.49508058       9.65604871       0.00000000 NULL
P        2.41508243      -1.42433777       5.17958331       0.00000000 NULL
P        1.12473392      -0.65631784       6.61681196       0.00000000 NULL
P        1.54767689       0.48950368       8.37374769       0.00000000 NULL
P        2.49675763       6.59564510       9.30718134       0.00000000 NULL
P        0.17565318       0.95140069       0.65262698       0.00000000 NULL
22
Lattice="4.416067663800943 -0.018400905041085314 -0.028214871905437186 -0.8641753629941827 12.124939210628296 -0.41601226510050154 -0.8641753629941821 -5.269323998924548 10.928011788999113" Properties=species:S:1:pos:R:3:initial_magmoms:R:1:castep_labels:S:1 n_minim_iter=9 pbc="T T T"
P       -0.12007638       8.20555534       3.78485525       0.00000000 NULL
P        2.80779331       6.68200480       1.44873193       0.00000000 NULL
P        2.43073482       1.71187816       0.70429305       0.00000000 NULL
P        0.25698212       6.88291137       8.63325303       0.00000000 NULL
P        0.49627836       4.82698711       7.77364108       0.00000000 NULL
P        2.19143858       1.66960104       2.93228988       0.00000000 NULL
P        2.50342817       6.79744955       3.75158955       0.00000000 NULL
P        0.18428877       6.14471617       2.75072635       0.00000000 NULL
P        0.80688161      -0.18783654       2.43376904       0.00000000 NULL
P        1.88083532       4.53429659       9.67441188       0.00000000 NULL
P        1.66788577       6.27105250       6.54968217       0.00000000 NULL
P        1.01983117       3.37189624       2.10428547       0.00000000 NULL
P        2.62678489       9.75521133       1.67574417       0.00000000 NULL
P        0.06093205       9.23689096       0.88098201       0.00000000 NULL
P        3.77453050       4.63008804       1.29230479       0.00000000 NULL
P       -1.08681356       7.52139735       5.72566943       0.00000000 NULL
P        0.25981218       1.49649124       9.69590760       0.00000000 NULL
P        2.42790476      -1.43231279       5.20505074       0.00000000 NULL
P        1.12529566      -0.66215637       6.64411865       0.00000000 NULL
P        1.56242128       0.49009262       8.41090987       0.00000000 NULL
P        2.50966985       6.61793894       9.34529491       0.00000000 NULL
P        0.17804708       0.95344268       0.65968754       0.00000000 NULL
22
Lattice="4.39542604907999 -0.017975755884743257 -0.027562973047195568 -0.8592797445412029 12.083572303551804 -0.4271452217688419 -0.8592797445412023 -5.262833341294235 10.885667543949989" Properties=species:S:1:pos:R:3:initial_magmoms:R:1:castep_labels:S:1 n_minim_iter=10 pbc="T T T"
P       -0.11799366       8.17595054       3.75802817       0.00000000 NULL
P        2.79486022       6.66016734       1.43381484       0.00000000 NULL
P        2.41877184       1.70701537       0.70066968       0.00000000 NULL
P        0.25809472       6.84981546       8.58633865       0.00000000 NULL
P        0.49508464       4.80133832       7.73624461       0.00000000 NULL
P        2.18178192       1.65903083       2.91801402       0.00000000 NULL
P        2.49268172       6.76930747       3.72760779       0.00000000 NULL
P        0.18418484       6.12086466       2.73332350       0.00000000 NULL
P        0.80209815      -0.19036480       2.42281555       0.00000000 NULL
P        1.87476841       4.50884985       9.62831655       0.00000000 NULL
P        1.65955128       6.24235313       6.51563162       0.00000000 NULL
P        1.01731528       3.35703416       2.09145222       0.00000000 NULL
P        2.61648556       9.72135711       1.65849057       0.00000000 NULL
P        0.06038100       9.20457933       0.86609373       0.00000000 NULL
P        3.75597853       4.61229114       1.28114212       0.00000000 NULL
P       -1.07911197       7.48998592       5.69363104       0.00000000 NULL
P        0.26010410       1.48023057       9.65134862       0.00000000 NULL
P        2.41676246      -1.43254330       5.18507148       0.00000000 NULL
P        1.11898287      -0.66701334       6.61539440       0.00000000 NULL
P        1.55788369       0.47996930       8.37411053       0.00000000 NULL
P        2.49906416       6.58384027       9.29780748       0.00000000 NULL
P        0.17780240       0.94870000       0.65721287       0.00000000 NULL
22
Lattice="4.3961017252442485 -0.01807731759647429 -0.027718701837740924 -0.8596612886196668 12.085792212190373 -0.4304979833325562 -0.8596612886196662 -5.2667965511250125 10.886347229394843" Properties=species:S:1:pos:R:3:initial_magmoms:R:1:castep_labels:S:1 n_minim_iter=11 pbc="T T T"
P       -0.11771908       8.17904107       3.75393973       0.00000000 NULL
P        2.79449823       6.66330994       1.42980625       0.00000000 NULL
P        2.41835767       1.70867414       0.70074043       0.00000000 NULL
P        0.25842147       6.84857465       8.58196334       0.00000000 NULL
P        0.49453195       4.79884805       7.73570983       0.00000000 NULL
P        2.18224720       1.65667130       2.91767973       0.00000000 NULL
P        2.49264136       6.76830940       3.72469951       0.00000000 NULL
P        0.18413779       6.12127880       2.73258063       0.00000000 NULL
P        0.80096558      -0.19193741       2.42224597       0.00000000 NULL
P        1.87581357       4.50689217       9.62715651       0.00000000 NULL
P        1.65779540       6.24135934       6.51417567       0.00000000 NULL
P        1.01898374       3.35612098       2.09011987       0.00000000 NULL
P        2.61731562       9.72385234       1.65586361       0.00000000 NULL
P        0.05946353       9.20614449       0.86204065       0.00000000 NULL
P        3.75502736       4.61177096       1.27853341       0.00000000 NULL
P       -1.07824821       7.49031859       5.69233005       0.00000000 NULL
P        0.25994108       1.47705655       9.64981398       0.00000000 NULL
P        2.41683807      -1.43426351       5.18576603       0.00000000 NULL
P        1.11710562      -0.66915538       6.61468351       0.00000000 NULL
P        1.55967353       0.47791135       8.37352856       0.00000000 NULL
P        2.49859262       6.58087501       9.29521507       0.00000000 NULL
P        0.17818653       0.94803193       0.65814285       0.00000000 NULL
22
Lattice="4.394018847735995 -0.018202148457292976 -0.027910110180970817 -0.8595907878189742 12.083419910038685 -0.4406383664920312 -0.8595907878189736 -5.275119709527859 10.880087818694067" Properties=species:S:1:pos:R:3:initial_magmoms:R:1:castep_labels:S:1 n_minim_iter=12 pbc="T T T"
P       -0.11654452       8.18122254       3.73896182       0.00000000 NULL
P        2.79138179       6.66707574       1.41725765       0.00000000 NULL
P        2.41514181       1.71202248       0.70030366       0.00000000 NULL
P        0.25969547       6.83950407       8.56248412       0.00000000 NULL
P        0.49309739       4.78788023       7.72758685       0.00000000 NULL
P        2.18173988       1.64886240       2.91440045       0.00000000 NULL
P        2.49081871       6.76061481       3.71317401       0.00000000 NULL
P        0.18401856       6.11790333       2.72767781       0.00000000 NULL
P        0.79725864      -0.19639612       2.41887670       0.00000000 NULL
P        1.87757863       4.49735746       9.61600400       0.00000000 NULL
P        1.65198892       6.23365353       6.50447177       0.00000000 NULL
P        1.02284835       3.35107400       2.08449287       0.00000000 NULL
P        2.61764086       9.72377711       1.64647813       0.00000000 NULL
P        0.05719641       9.20388268       0.84930240       0.00000000 NULL
P        3.74927917       4.60719213       1.27014854       0.00000000 NULL
P       -1.07444189       7.48532531       5.68330969       0.00000000 NULL
P        0.25977240       1.46633030       9.63783161       0.00000000 NULL
P        2.41506487      -1.43844321       5.18382175       0.00000000 NULL
P        1.11126857      -0.67517362       6.60766405       0.00000000 NULL
P        1.56356871       0.47108820       8.36527491       0.00000000 NULL
P        2.49571837       6.56735460       9.28019956       0.00000000 NULL
P        0.17911890       0.94550134       0.65997847       0.00000000 NULL
22
Lattice="4.380474227791732 -0.018777732894126424 -0.028792677702500796 -0.8585360315250584 12.061893117095925 -0.5178022834902489 -0.8585360315250578 -5.337054418066957 10.829276749239812" Properties=species:S:1:pos:R:3:initial_magmoms:R:1:castep_labels:S:1 n_minim_iter=13 pbc="T T T"
P       -0.10650487       8.20081329       3.62066384       0.00000000 NULL
P        2.76990704       6.69919394       1.31816852       0.00000000 NULL
P        2.39025864       1.74215592       0.69747784       0.00000000 NULL
P        0.27314353       6.77020236       8.40719027       0.00000000 NULL
P        0.48286422       4.69854974       7.66589202       0.00000000 NULL
P        2.18053794       1.58526639       2.89216537       0.00000000 NULL
P        2.48124798       6.69892770       3.62265326       0.00000000 NULL
P        0.18215419       6.09183189       2.69176804       0.00000000 NULL
P        0.76674222      -0.23472612       2.39347794       0.00000000 NULL
P        1.89665995       4.42110904       9.53246336       0.00000000 NULL
P        1.60529380       6.17351885       6.43113142       0.00000000 NULL
P        1.05810836       3.30990640       2.04023553       0.00000000 NULL
P        2.62360003       9.72484216       1.57685212       0.00000000 NULL
P        0.03980214       9.18399098       0.74754254       0.00000000 NULL
P        3.70433685       4.57057476       1.20487215       0.00000000 NULL
P       -1.04093468       7.44626013       5.61427995       0.00000000 NULL
P        0.26030776       1.38280346       9.54399846       0.00000000 NULL
P        2.40309441      -1.47028893       5.16923341       0.00000000 NULL
P        1.06275706      -0.72014430       6.55304374       0.00000000 NULL
P        1.60064510       0.41890350       8.29959303       0.00000000 NULL
P        2.47632259       6.46159419       9.16407212       0.00000000 NULL
P        0.18707957       0.92509322       0.67472524       0.00000000 NULL
