12
Lattice="6.871640000000001 -3.7543298135443584e-16 -3.933537921310577e-16 2.505097508663965 6.398743842480774 -2.063436260414442e-15 2.5050975086639644 1.7094940797443121 6.166161914270883" Properties=species:S:1:pos:R:3:initial_magmoms:R:1:castep_labels:S:1 n_minim_iter=1 pbc="T T T"
P       10.39036330       6.05021146       6.05093423       0.00000000 NULL
P       10.72272618       6.96032886       4.21372505       0.00000000 NULL
P        9.42171397       7.82659896       5.58159188       0.00000000 NULL
P        7.16691184       6.27768450       3.74568315       0.00000000 NULL
P        7.53560523       4.74640225       5.04880281       0.00000000 NULL
P        8.45840412       4.78106953       3.22503710       0.00000000 NULL
P        4.87033505       2.09119278       2.94451990       0.00000000 NULL
P        4.93796712       3.29706901       1.22852143       0.00000000 NULL
P        3.72278978       3.84543929       2.84901407       0.00000000 NULL
P        6.88741638       2.28870496       3.13710763       0.00000000 NULL
P        5.89525802       5.08844400       1.36740252       0.00000000 NULL
P        4.64204854       4.51359005       4.53817246       0.00000000 NULL
12
Lattice="6.882419613993051 -0.002299552645484186 -0.0017487663877731221 2.506885980677573 6.409619934980612 -0.0017487663877734992 2.5068859806775734 1.7107145441407985 6.177109883881773" Properties=species:S:1:pos:R:3:initial_magmoms:R:1:castep_labels:S:1 n_minim_iter=2 pbc="T T T"
P       10.40315253       6.05658945       6.05908943       0.00000000 NULL
P       10.73629320       6.96875180       4.21769246       0.00000000 NULL
P        9.43231542       7.83701819       5.58864873       0.00000000 NULL
P        7.17492390       6.28631466       3.74994330       0.00000000 NULL
P        7.54449582       4.75152578       5.05598114       0.00000000 NULL
P        8.46936121       4.78632749       3.22805663       0.00000000 NULL
P        4.87648476       2.09258025       2.94869880       0.00000000 NULL
P        4.94430407       3.30119230       1.22874203       0.00000000 NULL
P        3.72632368       3.85086105       2.85292855       0.00000000 NULL
P        6.89686741       2.29006011       3.14101215       0.00000000 NULL
P        5.90254423       5.09574096       1.36766528       0.00000000 NULL
P        4.64675586       4.51957184       4.54513399       0.00000000 NULL
12
Lattice="7.161004190402275 -0.06286186351219014 -0.04780526081832102 2.5520511544308855 6.6911110836699725 -0.04780526081832114 2.5520511544308864 1.7415355388824718 6.460673869170492" Properties=species:S:1:pos:R:3:initial_magmoms:R:1:castep_labels:S:1 n_minim_iter=3 pbc="T T T"
P       10.73195271       6.21982415       6.26927174       0.00000000 NULL
P       11.08537194       7.18518806       4.31884141       0.00000000 NULL
P        9.70418263       8.10545988       5.77019491       0.00000000 NULL
P        7.38034481       6.50875227       3.85926458       0.00000000 NULL
P        7.77281801       4.88274047       5.24112720       0.00000000 NULL
P        8.75137840       4.92111447       3.30503813       0.00000000 NULL
P        5.03473207       2.12739366       3.05653327       0.00000000 NULL
P        5.10741842       3.40727582       1.23348089       0.00000000 NULL
P        3.81643129       3.99075331       2.95389010       0.00000000 NULL
P        7.14050768       2.32396013       3.24137420       0.00000000 NULL
P        6.08985661       5.28405487       1.37352028       0.00000000 NULL
P        4.76714345       4.67359592       4.72503883       0.00000000 NULL
12
Lattice="7.2111914052048425 -0.05492906410391775 -0.0417725165828858 2.577734079924074 6.734952538643573 -0.04177251658288606 2.577734079924075 1.759061726557512 6.501310058986857" Properties=species:S:1:pos:R:3:initial_magmoms:R:1:castep_labels:S:1 n_minim_iter=4 pbc="T T T"
P       10.82039386       6.27352109       6.32001264       0.00000000 NULL
P       11.17650373       7.24448746       4.35703058       0.00000000 NULL
P        9.78642597       8.17112859       5.81713624       0.00000000 NULL
P        7.44215752       6.55828183       3.89248849       0.00000000 NULL
P        7.83748691       4.92380366       5.27998032       0.00000000 NULL
P        8.82003361       4.96368429       3.33422872       0.00000000 NULL
P        5.07569128       2.14486915       3.08034201       0.00000000 NULL
P        5.14806223       3.43535011       1.24396041       0.00000000 NULL
P        3.84763606       4.02218426       2.97814423       0.00000000 NULL
P        7.19855435       2.34864001       3.26840812       0.00000000 NULL
P        6.14141609       5.32620600       1.39008069       0.00000000 NULL
P        4.81128615       4.71168408       4.76123356       0.00000000 NULL
