10
Lattice="5.622529999999999 -8.980034683488159e-16 -1.9503043088888633e-16 1.9790339022634391 6.415920879951053 5.351518909570456e-16 2.380164212978867 1.59650438877085 6.1395386103102325" Properties=species:S:1:pos:R:3:initial_magmoms:R:1:castep_labels:S:1 n_minim_iter=1 pbc="T T T"
P        7.84601541       5.25887645       5.20808097       0.00000000 NULL
P        2.47435889       4.71767075       3.27077105       0.00000000 NULL
P        3.06542253       4.97140764       1.35199455       0.00000000 NULL
P        6.04142987       2.80853114       4.35138264       0.00000000 NULL
P        3.59411877       1.78766537       5.51009899       0.00000000 NULL
P        7.68422105       6.60323999       2.40938457       0.00000000 NULL
P        6.73337198       6.82471735       4.44699613       0.00000000 NULL
P        5.03227580       5.02419778       2.99045690       0.00000000 NULL
P        3.14081510       1.32639244       3.59568341       0.00000000 NULL
P        3.62795236       6.33047837       3.64720335       0.00000000 NULL
10
Lattice="5.633521178023235 -0.0025737246556395686 -0.0002734643426395526 1.9799657070161785 6.4271542736911185 0.002920776073388209 2.383787653136764 1.601322608613416 6.158826653494383" Properties=species:S:1:pos:R:3:initial_magmoms:R:1:castep_labels:S:1 n_minim_iter=2 pbc="T T T"
P        7.85876272       5.26760012       5.22651665       0.00000000 NULL
P        2.47665133       4.72636018       3.28281919       0.00000000 NULL
P        3.06925405       4.97991741       1.35789813       0.00000000 NULL
P        6.05161282       2.81314343       4.36562400       0.00000000 NULL
P        3.60013873       1.79223529       5.52778322       0.00000000 NULL
P        7.69582515       6.61362508       2.41908511       0.00000000 NULL
P        6.74328189       6.83677888       4.46342197       0.00000000 NULL
P        5.03979284       5.03245884       3.00153424       0.00000000 NULL
P        3.14600473       1.32944118       3.60671930       0.00000000 NULL
P        3.63222724       6.34275210       3.66147462       0.00000000 NULL
10
Lattice="5.901044869741421 -0.06655478299245583 -0.007819691148042578 2.0011200712373465 6.701143104631564 0.07841966878881833 2.470630040084414 1.7228078303394139 6.636995683352253" Properties=species:S:1:pos:R:3:initial_magmoms:R:1:castep_labels:S:1 n_minim_iter=3 pbc="T T T"
P        8.16705179       5.48284830       5.68530367       0.00000000 NULL
P        2.53074782       4.93995185       3.58319135       0.00000000 NULL
P        3.16136652       5.18783941       1.50590176       0.00000000 NULL
P        6.29782063       2.92769405       4.71895175       0.00000000 NULL
P        3.74543235       1.90717074       5.96641715       0.00000000 NULL
P        7.97607203       6.86749375       2.66150810       0.00000000 NULL
P        6.98218441       7.13338200       4.87301388       0.00000000 NULL
P        5.22116155       5.23498344       3.27758165       0.00000000 NULL
P        3.27129311       1.40606224       3.88004071       0.00000000 NULL
P        3.73441937       6.64446486       4.01834365       0.00000000 NULL
10
Lattice="5.942209696181391 -0.06514017549643177 -0.02995052145585667 2.0172236041444496 6.764388768558337 0.12376257699767376 2.4642920368454226 1.789864251349359 6.764524553394454" Properties=species:S:1:pos:R:3:initial_magmoms:R:1:castep_labels:S:1 n_minim_iter=4 pbc="T T T"
P        8.20654708       5.58014477       5.80920907       0.00000000 NULL
P        2.53389978       5.00484556       3.67748690       0.00000000 NULL
P        3.18360461       5.24769129       1.55871053       0.00000000 NULL
P        6.32037487       2.99287856       4.80609758       0.00000000 NULL
P        3.75312830       1.97198273       6.07807129       0.00000000 NULL
P        8.02279131       6.95436871       2.73105188       0.00000000 NULL
P        7.01659383       7.24356790       4.99330056       0.00000000 NULL
P        5.24452502       5.30671689       3.35744959       0.00000000 NULL
P        3.28041688       1.45558747       3.94841159       0.00000000 NULL
P        3.75288218       6.73758929       4.13566751       0.00000000 NULL
10
Lattice="5.932004064717855 -0.04548183526993128 -0.05559859674884754 2.0360637107982202 6.774795533328001 0.16226225949231995 2.4375471727229927 1.8445339207213787 6.8056922456310005" Properties=species:S:1:pos:R:3:initial_magmoms:R:1:castep_labels:S:1 n_minim_iter=5 pbc="T T T"
P        8.18839273       5.65035605       5.85192716       0.00000000 NULL
P        2.52796549       5.03210133       3.72121434       0.00000000 NULL
P        3.19364493       5.27151750       1.58852169       0.00000000 NULL
P        6.29271074       3.04761652       4.82788793       0.00000000 NULL
P        3.73104441       2.02551924       6.10894476       0.00000000 NULL
P        8.02023695       7.00156697       2.75798580       0.00000000 NULL
P        7.00912017       7.31004005       5.04318375       0.00000000 NULL
P        5.23395362       5.34606650       3.38890787       0.00000000 NULL
P        3.26346131       1.50077759       3.96602208       0.00000000 NULL
P        3.75668878       6.77925767       4.19526223       0.00000000 NULL
10
Lattice="5.902658868401334 -0.013022877551617679 -0.09240542120874731 2.062773922426686 6.768535822085729 0.22166681169973815 2.3941499053829016 1.9231169095143397 6.830319952688571" Properties=species:S:1:pos:R:3:initial_magmoms:R:1:castep_labels:S:1 n_minim_iter=6 pbc="T T T"
P        8.14674082       5.74185282       5.88778905       0.00000000 NULL
P        2.51594252       5.05687430       3.76775867       0.00000000 NULL
P        3.20548691       5.29222355       1.62749751       0.00000000 NULL
P        6.23614906       3.12365950       4.83572222       0.00000000 NULL
P        3.69293341       2.10123050       6.12062836       0.00000000 NULL
P        8.00129256       7.05238471       2.78597334       0.00000000 NULL
P        6.98740392       7.39230532       5.09432054       0.00000000 NULL
P        5.20687007       5.38832533       3.41880274       0.00000000 NULL
P        3.23117267       1.56863598       3.97146204       0.00000000 NULL
P        3.75900293       6.82058790       4.26546824       0.00000000 NULL
10
Lattice="5.884026278459935 0.005815363511802581 -0.11993497093154921 2.0777120618406792 6.7575240453768695 0.30009730880954066 2.361550342074792 2.0110259707026548 6.845729616752926" Properties=species:S:1:pos:R:3:initial_magmoms:R:1:castep_labels:S:1 n_minim_iter=7 pbc="T T T"
P        8.11892910       5.82618637       5.93994524       0.00000000 NULL
P        2.50048965       5.07770158       3.82055033       0.00000000 NULL
P        3.21785234       5.31036233       1.68071279       0.00000000 NULL
P        6.18282202       3.19646544       4.84809955       0.00000000 NULL
P        3.67094709       2.18045667       6.12358181       0.00000000 NULL
P        7.98347163       7.08947807       2.83220788       0.00000000 NULL
P        6.97390769       7.47739112       5.16329124       0.00000000 NULL
P        5.17688153       5.41857216       3.45723542       0.00000000 NULL
P        3.20400903       1.64610674       3.97412112       0.00000000 NULL
P        3.76337261       6.85998895       4.35238551       0.00000000 NULL
10
Lattice="5.853939014047742 0.006659764810240955 -0.13141816262866343 2.0680854161177757 6.728232125524402 0.35585664314777343 2.3365142749598937 2.0612457507533524 6.825854692940895" Properties=species:S:1:pos:R:3:initial_magmoms:R:1:castep_labels:S:1 n_minim_iter=8 pbc="T T T"
P        8.07262344       5.85111036       5.95796987       0.00000000 NULL
P        2.47610206       5.07336200       3.84263103       0.00000000 NULL
P        3.20911389       5.30286181       1.71511747       0.00000000 NULL
P        6.12381059       3.22577314       4.84027327       0.00000000 NULL
P        3.65002923       2.22215303       6.09886643       0.00000000 NULL
P        7.93695152       7.08000108       2.85956517       0.00000000 NULL
P        6.93772732       7.50494533       5.19518164       0.00000000 NULL
P        5.13289499       5.41121634       3.47202483       0.00000000 NULL
P        3.17528773       1.69045079       3.96022815       0.00000000 NULL
P        3.74638341       6.86052229       4.39613183       0.00000000 NULL
10
Lattice="5.844692739771474 0.0004455400265677762 -0.13437057007214373 2.057739777267537 6.725516627726604 0.39312355450588815 2.3276116799060116 2.0951396467606767 6.841832517064204" Properties=species:S:1:pos:R:3:initial_magmoms:R:1:castep_labels:S:1 n_minim_iter=9 pbc="T T T"
P        8.05478882       5.87224959       5.99850709       0.00000000 NULL
P        2.46160282       5.08153515       3.87368083       0.00000000 NULL
P        3.20355777       5.30791077       1.74526150       0.00000000 NULL
P        6.09709667       3.24543157       4.85910366       0.00000000 NULL
P        3.64512193       2.25104194       6.11060357       0.00000000 NULL
P        7.91476612       7.08430700       2.89350108       0.00000000 NULL
P        6.92205234       7.53346314       5.24006297       0.00000000 NULL
P        5.11131864       5.41479258       3.49842046       0.00000000 NULL
P        3.16332981       1.71824100       3.96919781       0.00000000 NULL
P        3.73654197       6.87484958       4.44247132       0.00000000 NULL
10
Lattice="5.819319787396649 -0.002101691727731075 -0.13580683068453356 2.0459022645555085 6.710881671673067 0.43008761608535584 2.314579034926019 2.126498252575864 6.84001070888289" Properties=species:S:1:pos:R:3:initial_magmoms:R:1:castep_labels:S:1 n_minim_iter=10 pbc="T T T"
P        8.01950855       5.88699632       6.02494892       0.00000000 NULL
P        2.44376368       5.08118322       3.89521468       0.00000000 NULL
P        3.19288191       5.30472906       1.77225761       0.00000000 NULL
P        6.05510959       3.26249395       4.86636480       0.00000000 NULL
P        3.63315592       2.27813491       6.10610084       0.00000000 NULL
P        7.87590018       7.07943933       2.92163162       0.00000000 NULL
P        6.89314049       7.55234883       5.27270510       0.00000000 NULL
P        5.07895449       5.41048735       3.51637777       0.00000000 NULL
P        3.14423814       1.74529391       3.96843341       0.00000000 NULL
P        3.72123869       6.87746162       4.47768575       0.00000000 NULL
10
Lattice="5.781819047086813 -0.00964183195668549 -0.1325338739056647 2.0240985250350683 6.697478654363181 0.49941937452754104 2.300136899001545 2.185874300869862 6.862145151673906" Properties=species:S:1:pos:R:3:initial_magmoms:R:1:castep_labels:S:1 n_minim_iter=11 pbc="T T T"
P        7.97031999       5.92114977       6.10099259       0.00000000 NULL
P        2.41598698       5.08938110       3.94959478       0.00000000 NULL
P        3.17653221       5.30791989       1.82952991       0.00000000 NULL
P        5.99102113       3.29650207       4.90255974       0.00000000 NULL
P        3.62182700       2.33079920       6.12263190       0.00000000 NULL
P        7.81613878       7.08169005       2.98960808       0.00000000 NULL
P        6.85209932       7.59809631       5.35569637       0.00000000 NULL
P        5.02945089       5.41112449       3.56504968       0.00000000 NULL
P        3.11720151       1.79559496       3.98366158       0.00000000 NULL
P        3.69908438       6.89466108       4.55886596       0.00000000 NULL
10
Lattice="5.578810663864782 -0.03110471528926664 -0.08757007860885195 1.9281515698107263 6.65609558904318 0.7743276496329491 2.257202149195849 2.416291970888256 6.9093101326756035" Properties=species:S:1:pos:R:3:initial_magmoms:R:1:castep_labels:S:1 n_minim_iter=12 pbc="T T T"
P        7.73976546       6.06639442       6.39569599       0.00000000 NULL
P        2.30646489       5.12310181       4.14361460       0.00000000 NULL
P        3.09585783       5.33063773       2.05901890       0.00000000 NULL
P        5.70000015       3.43426925       5.04245272       0.00000000 NULL
P        3.57960680       2.54395614       6.15673869       0.00000000 NULL
P        7.53157308       7.10520878       3.27024207       0.00000000 NULL
P        6.66247200       7.79487947       5.67596599       0.00000000 NULL
P        4.81007555       5.41791508       3.74642487       0.00000000 NULL
P        3.00177989       1.99978332       4.03264426       0.00000000 NULL
P        3.60407320       6.96739771       4.85499174       0.00000000 NULL
10
Lattice="5.816283923916059 -0.06021849165078149 -0.1300183173828567 1.9785160759797318 6.984694408168733 0.797261858608386 2.3031125280619364 2.5245278002134843 7.195987726420877" Properties=species:S:1:pos:R:3:initial_magmoms:R:1:castep_labels:S:1 n_minim_iter=13 pbc="T T T"
P        8.01815289       6.32854903       6.64309542       0.00000000 NULL
P        2.34785025       5.34974674       4.31836851       0.00000000 NULL
P        3.20318541       5.58486461       2.13265678       0.00000000 NULL
P        5.86406609       3.57483558       5.23405595       0.00000000 NULL
P        3.69808697       2.67376730       6.39756773       0.00000000 NULL
P        7.80554670       7.42581248       3.35024650       0.00000000 NULL
P        6.90077928       8.17160718       5.87615978       0.00000000 NULL
P        4.96252359       5.64938615       3.86462782       0.00000000 NULL
P        3.08862712       2.10887061       4.17874527       0.00000000 NULL
P        3.70846411       7.28937090       5.04870693       0.00000000 NULL
10
Lattice="5.620901163801793 -0.01916473416851403 -0.12519137276579526 1.956591524869644 6.745639377448072 0.7667653447804095 2.2373298045167056 2.4480173926081514 6.91660180532654" Properties=species:S:1:pos:R:3:initial_magmoms:R:1:castep_labels:S:1 n_minim_iter=14 pbc="T T T"
P        7.78681890       6.15430232       6.38315080       0.00000000 NULL
P        2.30159153       5.17455735       4.15035954       0.00000000 NULL
P        3.13100288       5.40811577       2.05743706       0.00000000 NULL
P        5.67883063       3.48198141       5.03172711       0.00000000 NULL
P        3.59198614       2.60014838       6.14216784       0.00000000 NULL
P        7.59367508       7.20433278       3.22200712       0.00000000 NULL
P        6.71904581       7.92693915       5.64872712       0.00000000 NULL
P        4.82415873       5.47665088       3.71431569       0.00000000 NULL
P        2.99666350       2.05518019       4.01858827       0.00000000 NULL
P        3.62734224       7.04571687       4.85088178       0.00000000 NULL
10
Lattice="5.622899207290923 -0.015377503762855132 -0.1301443984875412 1.961616445401866 6.740721580587323 0.7651280183078834 2.23384253257973 2.4481666856035655 6.9173077843041" Properties=species:S:1:pos:R:3:initial_magmoms:R:1:castep_labels:S:1 n_minim_iter=15 pbc="T T T"
P        7.79014737       6.15459866       6.38093984       0.00000000 NULL
P        2.30076773       5.16980940       4.15074932       0.00000000 NULL
P        3.13534717       5.40576228       2.05682502       0.00000000 NULL
P        5.67250660       3.48182211       5.03041260       0.00000000 NULL
P        3.59251172       2.60410645       6.13964823       0.00000000 NULL
P        7.59985676       7.20160273       3.21476318       0.00000000 NULL
P        6.72536879       7.92776361       5.64415298       0.00000000 NULL
P        4.82482116       5.47277760       3.70973856       0.00000000 NULL
P        2.99443599       2.05860978       4.01609698       0.00000000 NULL
P        3.63119914       7.04036908       4.85004659       0.00000000 NULL
10
Lattice="5.649617204567371 0.016909859699934224 -0.18216305749927444 2.0078641295956623 6.698613224212655 0.7437690527901634 2.197518951019642 2.44561090486297 6.906041977543363" Properties=species:S:1:pos:R:3:initial_magmoms:R:1:castep_labels:S:1 n_minim_iter=16 pbc="T T T"
P        7.82670770       6.15360101       6.33864193       0.00000000 NULL
P        2.28780614       5.12302032       4.14254509       0.00000000 NULL
P        3.17675250       5.38555090       2.04428531       0.00000000 NULL
P        5.60602080       3.47374913       5.00407461       0.00000000 NULL
P        3.60054637       2.64145496       6.09504723       0.00000000 NULL
P        7.66454164       7.17381041       3.12686851       0.00000000 NULL
P        6.79054193       7.93854843       5.57795992       0.00000000 NULL
P        4.83029404       5.43274947       3.65020163       0.00000000 NULL
P        2.97230842       2.09080759       3.97864895       0.00000000 NULL
P        3.66729109       6.98871603       4.82682244       0.00000000 NULL
10
Lattice="5.7640465869531985 -0.023205500177335702 -0.22346545007689278 2.0023652975953543 6.830359388278764 0.687813238608707 2.1894689697546887 2.4252916876770345 6.709387904923064" Properties=species:S:1:pos:R:3:initial_magmoms:R:1:castep_labels:S:1 n_minim_iter=17 pbc="T T T"
P        7.94264073       6.18057188       6.12078943       0.00000000 NULL
P        2.24897303       5.16136696       4.01626871       0.00000000 NULL
P        3.19191972       5.46889012       1.97876075       0.00000000 NULL
P        5.57061797       3.44024732       4.86286006       0.00000000 NULL
P        3.66488470       2.67533428       5.87512254       0.00000000 NULL
P        7.78060185       7.23417154       2.93455343       0.00000000 NULL
P        6.89316628       8.06640549       5.34191493       0.00000000 NULL
P        4.85792553       5.45874738       3.48665331       0.00000000 NULL
P        2.98328814       2.11271868       3.82783181       0.00000000 NULL
P        3.69500125       7.05271817       4.67225230       0.00000000 NULL
10
Lattice="5.65768242743313 0.11393659650188942 -0.30535854427333153 2.121421054332715 6.599845875364235 0.6882810295282299 2.0939600048338334 2.442006968065218 6.745379477516811" Properties=species:S:1:pos:R:3:initial_magmoms:R:1:castep_labels:S:1 n_minim_iter=18 pbc="T T T"
P        7.84650545       6.18100708       6.08692930       0.00000000 NULL
P        2.25580348       5.04147406       4.04122095       0.00000000 NULL
P        3.22974703       5.33195563       1.96701176       0.00000000 NULL
P        5.45288244       3.47233447       4.84540520       0.00000000 NULL
P        3.56582887       2.72098435       5.88595801       0.00000000 NULL
P        7.77108794       7.13607324       2.87344276       0.00000000 NULL
P        6.87259851       7.95224799       5.31334872       0.00000000 NULL
P        4.83752668       5.38129980       3.46907699       0.00000000 NULL
P        2.91787259       2.13253415       3.81755666       0.00000000 NULL
P        3.72548328       6.88650688       4.68795460       0.00000000 NULL
10
Lattice="5.797479562660248 0.08393011155125873 -0.29512486574299646 2.1363865657172845 6.7569582824114365 0.6964590590298345 2.1557942178823724 2.4754064363497847 6.85979931297135" Properties=species:S:1:pos:R:3:initial_magmoms:R:1:castep_labels:S:1 n_minim_iter=19 pbc="T T T"
P        8.02933026       6.27773761       6.20302850       0.00000000 NULL
P        2.29225645       5.14534335       4.10914595       0.00000000 NULL
P        3.28221170       5.44349752       1.99853042       0.00000000 NULL
P        5.58355899       3.51875538       4.93925259       0.00000000 NULL
P        3.65969633       2.75898331       5.99148330       0.00000000 NULL
P        7.93145740       7.27032016       2.92879230       0.00000000 NULL
P        7.01819729       8.10453841       5.40742007       0.00000000 NULL
P        4.94187655       5.48163534       3.53225555       0.00000000 NULL
P        2.98833885       2.16110773       3.88266086       0.00000000 NULL
P        3.79600714       7.03105075       4.77023356       0.00000000 NULL
10
Lattice="5.763197886341398 0.08311246037396088 -0.29036013599519084 2.123386975688887 6.7116904173235925 0.6839275628444027 2.1462525772732937 2.4502711702365754 6.781925663895153" Properties=species:S:1:pos:R:3:initial_magmoms:R:1:castep_labels:S:1 n_minim_iter=20 pbc="T T T"
P        7.98588170       6.22822348       6.13013279       0.00000000 NULL
P        2.27957103       5.10714394       4.06015675       0.00000000 NULL
P        3.26189750       5.40511657       1.97482649       0.00000000 NULL
P        5.54980235       3.48850724       4.88462083       0.00000000 NULL
P        3.64233923       2.73364108       5.92121204       0.00000000 NULL
P        7.88698657       7.21713530       2.89192679       0.00000000 NULL
P        6.97920443       8.04514737       5.34199823       0.00000000 NULL
P        4.91322890       5.44033891       3.49002542       0.00000000 NULL
P        2.97229966       2.14201439       3.83825078       0.00000000 NULL
P        3.77602504       6.97702311       4.71283356       0.00000000 NULL
