13
Lattice="4.81797 8.646599804688077e-16 -2.577344515441452e-15 -2.1924459094517545 5.268326952318757 -9.501228078002444e-16 -1.117549613773979 -1.504304449153854 11.209270235417186" Properties=species:S:1:pos:R:3:initial_magmoms:R:1:castep_labels:S:1 n_minim_iter=1 pbc="T T T"
P       -1.16655544       0.98002276       9.20389256       0.00000000 NULL
P       -0.96939084       2.15383207       5.27857314       0.00000000 NULL
P        0.90998765      -0.04018585       0.70398028       0.00000000 NULL
P        0.33985960       1.43371762       3.69677361       0.00000000 NULL
P        1.76194351       1.53289841       9.67327739       0.00000000 NULL
P        0.60437227       0.06464249       8.92096161       0.00000000 NULL
P        2.65741435       0.86944652       1.31820794       0.00000000 NULL
P       -0.02725316       1.55783884       1.60946513       0.00000000 NULL
P       -1.80889505       3.77161848       7.67512184       0.00000000 NULL
P       -0.34663523       0.11177009       5.14211260       0.00000000 NULL
P       -1.32324007       3.19794387       2.16673400       0.00000000 NULL
P        4.44807869      -0.22908044       2.67491075       0.00000000 NULL
P        0.23261441       4.10482756       3.13167506       0.00000000 NULL
13
Lattice="4.82883970003246 -0.00020352361880809845 0.00027557189636704093 -2.1976147789838447 5.2795689428673604 0.003672527416939956 -1.1193662103347997 -1.4993600608214699 11.226762093064808" Properties=species:S:1:pos:R:3:initial_magmoms:R:1:castep_labels:S:1 n_minim_iter=2 pbc="T T T"
P       -1.16876063       0.98881502       9.21981965       0.00000000 NULL
P       -0.97142146       2.16222946       5.28884981       0.00000000 NULL
P        0.91203989      -0.04010714       0.70483428       0.00000000 NULL
P        0.34108123       1.43969914       3.70414856       0.00000000 NULL
P        1.76640656       1.54325624       9.69069095       0.00000000 NULL
P        0.60626963       0.07106737       8.93589447       0.00000000 NULL
P        2.66354810       0.87220616       1.32124227       0.00000000 NULL
P       -0.02726270       1.56253086       1.61304562       0.00000000 NULL
P       -1.81268647       3.78508191       7.69038968       0.00000000 NULL
P       -0.34719510       0.11557244       5.15089779       0.00000000 NULL
P       -1.32645558       3.20637440       2.17248116       0.00000000 NULL
P        4.45810883      -0.22808036       2.67945422       0.00000000 NULL
P        0.23328942       4.11582595       3.14006964       0.00000000 NULL
13
Lattice="5.085542815011382 -0.006198571211374779 0.006981805011548634 -2.3209844897108587 5.543388834054322 0.0919383265548817 -1.1614354035807295 -1.378227278688063 11.635046147305552" Properties=species:S:1:pos:R:3:initial_magmoms:R:1:castep_labels:S:1 n_minim_iter=3 pbc="T T T"
P       -1.22079109       1.19917300       9.59269421       0.00000000 NULL
P       -1.01966462       2.36132835       5.53001869       0.00000000 NULL
P        0.96053234      -0.03866175       0.72442298       0.00000000 NULL
P        0.36999139       1.58173714       3.87761961       0.00000000 NULL
P        1.87184948       1.78992529      10.09890821       0.00000000 NULL
P        0.65142503       0.22525728       9.28510904       0.00000000 NULL
P        2.80830066       0.93681775       1.39287579       0.00000000 NULL
P       -0.02779565       1.67325968       1.69740219       0.00000000 NULL
P       -1.90279520       4.10424122       8.04905207       0.00000000 NULL
P       -0.36034510       0.20703617       5.35645555       0.00000000 NULL
P       -1.40323484       3.40526552       2.30832462       0.00000000 NULL
P        4.69499644      -0.20480676       2.78579819       0.00000000 NULL
P        0.24843805       4.37486838       3.33851358       0.00000000 NULL
13
Lattice="5.186912520613456 -0.03463057103794738 0.014682925524176188 -2.398203041794879 5.599736589171239 0.11714260787103749 -1.1581542188836476 -1.3229446799995281 11.721609464200156" Properties=species:S:1:pos:R:3:initial_magmoms:R:1:castep_labels:S:1 n_minim_iter=4 pbc="T T T"
P       -1.23807983       1.26417841       9.67510951       0.00000000 NULL
P       -1.04306204       2.40882799       5.58296199       0.00000000 NULL
P        0.98158570      -0.04628903       0.72644818       0.00000000 NULL
P        0.37920442       1.61709477       3.92205995       0.00000000 NULL
P        1.91593489       1.84654197      10.19489145       0.00000000 NULL
P        0.67793522       0.26792201       9.36286976       0.00000000 NULL
P        2.86201097       0.93512653       1.41504240       0.00000000 NULL
P       -0.03467001       1.69820829       1.71527423       0.00000000 NULL
P       -1.95052306       4.18944260       8.13294645       0.00000000 NULL
P       -0.36228550       0.23861966       5.40349751       0.00000000 NULL
P       -1.44856317       3.45527300       2.34217239       0.00000000 NULL
P        4.79085270      -0.22165230       2.81596772       0.00000000 NULL
P        0.23502412       4.42502352       3.38984367       0.00000000 NULL
13
Lattice="5.240338443353436 -0.0683443021181958 0.030422496882163755 -2.4593799283016953 5.595379312145045 0.1251158698049546 -1.1234012617088778 -1.277296164682413 11.735673478539123" Properties=species:S:1:pos:R:3:initial_magmoms:R:1:castep_labels:S:1 n_minim_iter=5 pbc="T T T"
P       -1.22970002       1.29437927       9.69171988       0.00000000 NULL
P       -1.04913133       2.41561258       5.59220598       0.00000000 NULL
P        0.99562072      -0.05655476       0.72573091       0.00000000 NULL
P        0.38985729       1.62618019       3.93951740       0.00000000 NULL
P        1.95780832       1.85720573      10.22519965       0.00000000 NULL
P        0.71245546       0.28607831       9.38217141       0.00000000 NULL
P        2.89017831       0.91537393       1.43118796       0.00000000 NULL
P       -0.04051581       1.70031849       1.71765200       0.00000000 NULL
P       -1.97170332       4.21320050       8.15389410       0.00000000 NULL
P       -0.35296340       0.25739965       5.41591669       0.00000000 NULL
P       -1.48015645       3.46445601       2.35156795       0.00000000 NULL
P        4.84674929      -0.24748747       2.83681053       0.00000000 NULL
P        0.21917359       4.41784681       3.40922108       0.00000000 NULL
13
Lattice="5.277167564653377 -0.10922591811826961 0.05520062428794021 -2.520842240389627 5.55830717379695 0.1307575034409619 -1.0615318950311932 -1.2159220691475847 11.731232953702566" Properties=species:S:1:pos:R:3:initial_magmoms:R:1:castep_labels:S:1 n_minim_iter=6 pbc="T T T"
P       -1.20212998       1.32220370       9.69308320       0.00000000 NULL
P       -1.04378325       2.40816321       5.59091620       0.00000000 NULL
P        1.00885600      -0.06947437       0.72444939       0.00000000 NULL
P        0.40589035       1.62895956       3.95406503       0.00000000 NULL
P        2.01080770       1.85798089      10.24566977       0.00000000 NULL
P        0.76035553       0.30568783       9.39011092       0.00000000 NULL
P        2.91022750       0.88481216       1.45183420       0.00000000 NULL
P       -0.04570869       1.69328233       1.71634694       0.00000000 NULL
P       -1.97793165       4.21752982       8.16236549       0.00000000 NULL
P       -0.33439281       0.27814183       5.42204948       0.00000000 NULL
P       -1.50843381       3.45669707       2.35664810       0.00000000 NULL
P        4.89182781      -0.27870499       2.86294640       0.00000000 NULL
P        0.20187541       4.38398512       3.42578294       0.00000000 NULL
13
Lattice="5.356666249828469 -0.20579592978406785 0.12191475596848553 -2.66261542751275 5.481903480936285 0.15109870719236038 -0.8946060520269459 -1.0512855678627098 11.780056148212035" Properties=species:S:1:pos:R:3:initial_magmoms:R:1:castep_labels:S:1 n_minim_iter=7 pbc="T T T"
P       -1.12006465       1.40864684       9.74834093       0.00000000 NULL
P       -1.01945095       2.40602464       5.61957473       0.00000000 NULL
P        1.04130737      -0.09982498       0.72548574       0.00000000 NULL
P        0.45173268       1.64949518       4.01178006       0.00000000 NULL
P        2.15268435       1.88266801      10.35569089       0.00000000 NULL
P        0.88527549       0.37252493       9.46193171       0.00000000 NULL
P        2.95533944       0.81601255       1.51552412       0.00000000 NULL
P       -0.05542061       1.68392609       1.72407163       0.00000000 NULL
P       -1.97760370       4.24999481       8.23075187       0.00000000 NULL
P       -0.28320306       0.33496793       5.46899449       0.00000000 NULL
P       -1.57155255       3.45017159       2.38529507       0.00000000 NULL
P        4.99718894      -0.34932031       2.94849962       0.00000000 NULL
P        0.16521696       4.32075093       3.49169472       0.00000000 NULL
13
Lattice="5.35656271683699 -0.2770169236797824 0.17780393730052108 -2.7404466492156816 5.377980518590862 0.19104274447179057 -0.7423156272148107 -0.8567372676637719 11.907637793586632" Properties=species:S:1:pos:R:3:initial_magmoms:R:1:castep_labels:S:1 n_minim_iter=8 pbc="T T T"
P       -1.03456036       1.50887281       9.87328806       0.00000000 NULL
P       -0.97844960       2.40790844       5.69094057       0.00000000 NULL
P        1.06145200      -0.12617488       0.72660071       0.00000000 NULL
P        0.49651766       1.68591155       4.09278918       0.00000000 NULL
P        2.25971645       1.94088218      10.53437124       0.00000000 NULL
P        0.97376637       0.47209749       9.59839190       0.00000000 NULL
P        2.95597024       0.75948844       1.58675398       0.00000000 NULL
P       -0.05968591       1.67648439       1.74236726       0.00000000 NULL
P       -1.94675865       4.27963388       8.37016642       0.00000000 NULL
P       -0.24161446       0.39549797       5.56409727       0.00000000 NULL
P       -1.60505272       3.43448111       2.44213951       0.00000000 NULL
P        5.02689703      -0.39391931       3.04948687       0.00000000 NULL
P        0.13462326       4.26089029       3.58916859       0.00000000 NULL
13
Lattice="5.444766565131602 -0.3386081036980582 0.19668448329987695 -2.8479327149460243 5.401170145641051 0.2526707531928206 -0.6996177997409774 -0.6916650462583406 12.073241151275349" Properties=species:S:1:pos:R:3:initial_magmoms:R:1:castep_labels:S:1 n_minim_iter=9 pbc="T T T"
P       -1.03637010       1.63927490      10.03260710       0.00000000 NULL
P       -0.99724085       2.47861977       5.79320028       0.00000000 NULL
P        1.09123199      -0.14587314       0.72454713       0.00000000 NULL
P        0.51608375       1.75226618       4.17680417       0.00000000 NULL
P        2.32488493       2.05311122      10.72513517       0.00000000 NULL
P        1.00729139       0.58342349       9.75423063       0.00000000 NULL
P        2.99757288       0.73607231       1.63810814       0.00000000 NULL
P       -0.07194639       1.70524246       1.77061818       0.00000000 NULL
P       -2.00154841       4.40294890       8.54971809       0.00000000 NULL
P       -0.23941161       0.45809214       5.67198100       0.00000000 NULL
P       -1.67440069       3.49024241       2.51888394       0.00000000 NULL
P        5.12335420      -0.42908394       3.12602273       0.00000000 NULL
P        0.09098642       4.30754831       3.69701882       0.00000000 NULL
13
Lattice="5.392265404105146 -0.3395314547701092 0.20212809485792974 -2.8250514100822355 5.320614467430077 0.2537502622237814 -0.6744867660557349 -0.6607618366339489 11.985697198027818" Properties=species:S:1:pos:R:3:initial_magmoms:R:1:castep_labels:S:1 n_minim_iter=10 pbc="T T T"
P       -1.01406459       1.62931641       9.96073998       0.00000000 NULL
P       -0.97948416       2.44732552       5.75077716       0.00000000 NULL
P        1.08436821      -0.14654110       0.71893276       0.00000000 NULL
P        0.51795472       1.73543031       4.15032130       0.00000000 NULL
P        2.31947553       2.03648830      10.65305769       0.00000000 NULL
P        1.00860131       0.58875792       9.68705896       0.00000000 NULL
P        2.96931476       0.72159671       1.63258022       0.00000000 NULL
P       -0.06994804       1.68264250       1.75583119       0.00000000 NULL
P       -1.97490200       4.35100432       8.49480746       0.00000000 NULL
P       -0.23149521       0.45907300       5.63555504       0.00000000 NULL
P       -1.65997088       3.44440933       2.50391892       0.00000000 NULL
P        5.07927834      -0.42612986       3.11442040       0.00000000 NULL
P        0.08887505       4.24894286       3.67454904       0.00000000 NULL
13
Lattice="5.399213123393629 -0.3476013186056689 0.20686374195693702 -2.8370372007535107 5.3140772901167015 0.26397918533347636 -0.662560942703417 -0.6296259355942124 12.002789402100705" Properties=species:S:1:pos:R:3:initial_magmoms:R:1:castep_labels:S:1 n_minim_iter=11 pbc="T T T"
P       -1.00901403       1.64954035       9.97834857       0.00000000 NULL
P       -0.97847630       2.45587654       5.76297818       0.00000000 NULL
P        1.08828552      -0.14922456       0.71772361       0.00000000 NULL
P        0.52281048       1.74478506       4.16114133       0.00000000 NULL
P        2.33231153       2.05516507      10.67603977       0.00000000 NULL
P        1.01564790       0.60892800       9.70536462       0.00000000 NULL
P        2.97272642       0.71752403       1.64090842       0.00000000 NULL
P       -0.07038806       1.68484631       1.75824130       0.00000000 NULL
P       -1.97740032       4.36456028       8.51896482       0.00000000 NULL
P       -0.22870043       0.46904814       5.64957195       0.00000000 NULL
P       -1.66794332       3.44724561       2.51522624       0.00000000 NULL
P        5.08992957      -0.42959383       3.12787191       0.00000000 NULL
P        0.08334760       4.25075926       3.68986462       0.00000000 NULL
13
Lattice="5.403010159291039 -0.3586752145700641 0.21363017344508825 -2.8508740864953728 5.297383011737402 0.2779619088040793 -0.644241631033103 -0.58454959320848 12.015329052903832" Properties=species:S:1:pos:R:3:initial_magmoms:R:1:castep_labels:S:1 n_minim_iter=12 pbc="T T T"
P       -1.00018452       1.67585289       9.99337719       0.00000000 NULL
P       -0.97561191       2.46454236       5.77449528       0.00000000 NULL
P        1.09280744      -0.15278679       0.71532128       0.00000000 NULL
P        0.52931443       1.75553616       4.17248792       0.00000000 NULL
P        2.34862258       2.07881824      10.69795443       0.00000000 NULL
P        1.02498745       0.63672343       9.72190052       0.00000000 NULL
P        2.97426711       0.71065750       1.65117108       0.00000000 NULL
P       -0.07083158       1.68545070       1.75969899       0.00000000 NULL
P       -1.97844389       4.37764012       8.54513381       0.00000000 NULL
P       -0.22414474       0.48256218       5.66398186       0.00000000 NULL
P       -1.67739176       3.44638755       2.52881784       0.00000000 NULL
P        5.09966177      -0.43394496       3.14451710       0.00000000 NULL
P        0.07537368       4.24751506       3.70765511       0.00000000 NULL
13
Lattice="5.419361693286678 -0.39952156130359345 0.237636454509491 -2.9029793846234213 5.241480299780358 0.33100049650622615 -0.5794291514162245 -0.41771357859777775 12.064161521271377" Properties=species:S:1:pos:R:3:initial_magmoms:R:1:castep_labels:S:1 n_minim_iter=13 pbc="T T T"
P       -0.96985027       1.77554997      10.05066111       0.00000000 NULL
P       -0.96710905       2.50055811       5.81912288       0.00000000 NULL
P        1.11009664      -0.16548339       0.70548386       0.00000000 NULL
P        0.55289859       1.79659860       4.21567073       0.00000000 NULL
P        2.40819952       2.17012030      10.77967442       0.00000000 NULL
P        1.05784041       0.74151573       9.78499935       0.00000000 NULL
P        2.98113479       0.68703845       1.68842481       0.00000000 NULL
P       -0.07271867       1.68879797       1.76487585       0.00000000 NULL
P       -1.98532884       4.43076602       8.64603475       0.00000000 NULL
P       -0.20783043       0.53332506       5.71871603       0.00000000 NULL
P       -1.71413173       3.44626218       2.58119363       0.00000000 NULL
P        5.13821294      -0.44914730       3.20740587       0.00000000 NULL
P        0.04456024       4.24114631       3.77428471       0.00000000 NULL
13
Lattice="5.4340567688515415 -0.4457484834992924 0.25937439395652406 -2.9602144231225838 5.205182570367858 0.386260024979716 -0.517829903946701 -0.25199914120600475 12.153227750950677" Properties=species:S:1:pos:R:3:initial_magmoms:R:1:castep_labels:S:1 n_minim_iter=14 pbc="T T T"
P       -0.94476051       1.87842365      10.13623737       0.00000000 NULL
P       -0.96494856       2.54733632       5.88282688       0.00000000 NULL
P        1.13117794      -0.18035322       0.68865293       0.00000000 NULL
P        0.57898510       1.84604751       4.27180813       0.00000000 NULL
P        2.46857109       2.27327104      10.88505578       0.00000000 NULL
P        1.08215219       0.85041034       9.88097388       0.00000000 NULL
P        2.98602802       0.66413614       1.72724736       0.00000000 NULL
P       -0.07544753       1.69646394       1.76405581       0.00000000 NULL
P       -2.00475811       4.49517047       8.78798158       0.00000000 NULL
P       -0.19319843       0.57906384       5.80005582       0.00000000 NULL
P       -1.76281273       3.45625635       2.64886444       0.00000000 NULL
P        5.17951849      -0.47185874       3.29501141       0.00000000 NULL
P        0.00058993       4.25618192       3.84834513       0.00000000 NULL
13
Lattice="5.373882409007606 -0.45495627352928125 0.2823852801108449 -2.942900205577107 5.094380724034229 0.40782366305382745 -0.4474611815653097 -0.14886915664531675 12.045823568354963" Properties=species:S:1:pos:R:3:initial_magmoms:R:1:castep_labels:S:1 n_minim_iter=15 pbc="T T T"
P       -0.88910737       1.90903611      10.05179364       0.00000000 NULL
P       -0.93091620       2.53221971       5.84245233       0.00000000 NULL
P        1.13056015      -0.18052985       0.67408257       0.00000000 NULL
P        0.59934409       1.84339451       4.25499297       0.00000000 NULL
P        2.50345597       2.30545084      10.80821088       0.00000000 NULL
P        1.10916961       0.90583201       9.81213240       0.00000000 NULL
P        2.95890068       0.64740179       1.73163055       0.00000000 NULL
P       -0.06757566       1.66737789       1.74105417       0.00000000 NULL
P       -1.96086781       4.45709295       8.75735264       0.00000000 NULL
P       -0.16580255       0.60094472       5.76878037       0.00000000 NULL
P       -1.75637572       3.40132501       2.65142951       0.00000000 NULL
P        5.14512328      -0.46008032       3.31870165       0.00000000 NULL
P       -0.00617090       4.19721175       3.84122069       0.00000000 NULL
13
Lattice="5.425760647256597 -0.46602179902796587 0.2838119509255736 -2.9786075755824832 5.165136040648286 0.4122421460221915 -0.45272037728036557 -0.15428554647707637 12.192016615707585" Properties=species:S:1:pos:R:3:initial_magmoms:R:1:castep_labels:S:1 n_minim_iter=16 pbc="T T T"
P       -0.90146963       1.93100545      10.17168546       0.00000000 NULL
P       -0.94561581       2.56631802       5.91311859       0.00000000 NULL
P        1.14237464      -0.18507693       0.67753016       0.00000000 NULL
P        0.60501461       1.86794726       4.30521237       0.00000000 NULL
P        2.52479182       2.33335313      10.93546609       0.00000000 NULL
P        1.11585249       0.91485915       9.93122032       0.00000000 NULL
P        2.98642548       0.65341495       1.75035054       0.00000000 NULL
P       -0.06993211       1.68934177       1.75723730       0.00000000 NULL
P       -1.98819303       4.51345962       8.86467994       0.00000000 NULL
P       -0.16861885       0.60369731       5.84179647       0.00000000 NULL
P       -1.78155364       3.44667647       2.68485092       0.00000000 NULL
P        5.19583484      -0.47284119       3.36298605       0.00000000 NULL
P       -0.01465865       4.25455564       3.88586964       0.00000000 NULL
13
Lattice="5.419857927129606 -0.4673280035388102 0.2864865763621911 -2.9773498088949952 5.153853275677078 0.41445457716443407 -0.44472071950897146 -0.14329426729077357 12.190323432182408" Properties=species:S:1:pos:R:3:initial_magmoms:R:1:castep_labels:S:1 n_minim_iter=17 pbc="T T T"
P       -0.89533630       1.93409246      10.17017544       0.00000000 NULL
P       -0.94214433       2.56497266       5.91331054       0.00000000 NULL
P        1.14275371      -0.18517939       0.67595235       0.00000000 NULL
P        0.60794642       1.86799178       4.30694614       0.00000000 NULL
P        2.52946916       2.33756392      10.93504513       0.00000000 NULL
P        1.11897007       0.92095729       9.93194139       0.00000000 NULL
P        2.98411266       0.65159252       1.75153294       0.00000000 NULL
P       -0.06886104       1.68575639       1.75489636       0.00000000 NULL
P       -1.98392901       4.50926758       8.86906574       0.00000000 NULL
P       -0.16545899       0.60552627       5.84369282       0.00000000 NULL
P       -1.78202237       3.44097956       2.68737824       0.00000000 NULL
P        5.19297163      -0.47151280       3.36983234       0.00000000 NULL
P       -0.01604510       4.24911623       3.88737288       0.00000000 NULL
13
Lattice="5.418073522334971 -0.4697655563530297 0.2898820250557767 -2.9792032065284455 5.147300078571773 0.41765697522133577 -0.43564605021683 -0.13043980044116002 12.203367859452847" Properties=species:S:1:pos:R:3:initial_magmoms:R:1:castep_labels:S:1 n_minim_iter=18 pbc="T T T"
P       -0.88909381       1.94017488      10.18077693       0.00000000 NULL
P       -0.93933819       2.56687307       5.92090607       0.00000000 NULL
P        1.14438304      -0.18566338       0.67450000       0.00000000 NULL
P        0.61211293       1.87054098       4.31434481       0.00000000 NULL
P        2.53732901       2.34571743      10.94780162       0.00000000 NULL
P        1.12353317       0.92940703       9.94513225       0.00000000 NULL
P        2.98424529       0.65018579       1.75484958       0.00000000 NULL
P       -0.06771198       1.68358414       1.75383306       0.00000000 NULL
P       -1.98130429       4.50997554       8.88544511       0.00000000 NULL
P       -0.16186260       0.60815157       5.85343802       0.00000000 NULL
P       -1.78494677       3.43867992       2.69387973       0.00000000 NULL
P        5.19466298      -0.47077854       3.38260409       0.00000000 NULL
P       -0.01829261       4.24835954       3.89387048       0.00000000 NULL
13
Lattice="5.393843554525062 -0.504222846431771 0.3427929007045553 -3.005855380828976 5.052766109498444 0.4663104267763439 -0.2961672345582271 0.06377032581730968 12.427533892076772" Properties=species:S:1:pos:R:3:initial_magmoms:R:1:castep_labels:S:1 n_minim_iter=19 pbc="T T T"
P       -0.79167507       2.03428105      10.36211965       0.00000000 NULL
P       -0.89527970       2.59865566       6.04871450       0.00000000 NULL
P        1.16915483      -0.19259486       0.65391197       0.00000000 NULL
P        0.67707990       1.91011613       4.43825117       0.00000000 NULL
P        2.65915224       2.47192992      11.16537538       0.00000000 NULL
P        1.19656548       1.05920546      10.16724684       0.00000000 NULL
P        2.98934618       0.63125841       1.80727621       0.00000000 NULL
P       -0.04920361       1.64982605       1.73918547       0.00000000 NULL
P       -1.93725622       4.52623859       9.15309813       0.00000000 NULL
P       -0.10445943       0.65006914       6.01369635       0.00000000 NULL
P       -1.82784763       3.40797622       2.79742138       0.00000000 NULL
P        5.22366373      -0.45381919       3.58731743       0.00000000 NULL
P       -0.04971761       4.24076142       3.99962609       0.00000000 NULL
13
Lattice="5.273942618198282 -0.40564820897056514 0.3801969946414071 -2.843504901946581 4.942382049229026 0.42932009922115294 -0.21211075927390788 0.017127665542282677 12.61624998008533" Properties=species:S:1:pos:R:3:initial_magmoms:R:1:castep_labels:S:1 n_minim_iter=20 pbc="T T T"
P       -0.66933391       1.94294002      10.47076678       0.00000000 NULL
P       -0.80154363       2.53673046       6.11891409       0.00000000 NULL
P        1.16345630      -0.16915679       0.64679654       0.00000000 NULL
P        0.76105983       1.90108461       4.53766068       0.00000000 NULL
P        2.73656400       2.50288483      11.30270299       0.00000000 NULL
P        1.25065651       1.04328839      10.34217663       0.00000000 NULL
P        2.98185484       0.67224520       1.79457712       0.00000000 NULL
P        0.01525904       1.57159246       1.68200837       0.00000000 NULL
P       -1.77692142       4.38029278       9.31190094       0.00000000 NULL
P       -0.04606266       0.58334956       6.13710841       0.00000000 NULL
P       -1.76621108       3.32466617       2.82796633       0.00000000 NULL
P        5.12886360      -0.33118170       3.77090073       0.00000000 NULL
P        0.02392463       4.20924160       4.00356301       0.00000000 NULL
13
Lattice="5.459931861991572 -0.5176702123063951 0.3686868166352507 -3.0506336088882025 5.040932832922108 0.5418169312605872 -0.24705446072386417 0.2577394292374676 12.4912249570124" Properties=species:S:1:pos:R:3:initial_magmoms:R:1:castep_labels:S:1 n_minim_iter=21 pbc="T T T"
P       -0.76118374       2.16299418      10.40594469       0.00000000 NULL
P       -0.90134293       2.68434456       6.11748688       0.00000000 NULL
P        1.20912925      -0.18717797       0.63446762       0.00000000 NULL
P        0.73852392       1.98279481       4.55129725       0.00000000 NULL
P        2.74192775       2.67748926      11.25176460       0.00000000 NULL
P        1.25830588       1.21179004      10.26888813       0.00000000 NULL
P        3.06848518       0.64101964       1.78657523       0.00000000 NULL
P       -0.01990468       1.60235158       1.69906407       0.00000000 NULL
P       -1.95737929       4.61272362       9.32628669       0.00000000 NULL
P       -0.07059370       0.69563063       6.09042320       0.00000000 NULL
P       -1.91391044       3.43825046       2.87828234       0.00000000 NULL
P        5.29719541      -0.36618465       3.73635378       0.00000000 NULL
P       -0.08241971       4.31050708       4.05477771       0.00000000 NULL
13
Lattice="5.345882186981428 -0.46510600545727154 0.3723516362039903 -2.941257010212658 4.933205267031244 0.4723088400139156 -0.22848573718691986 0.1251351353825038 12.444673548800889" Properties=species:S:1:pos:R:3:initial_magmoms:R:1:castep_labels:S:1 n_minim_iter=22 pbc="T T T"
P       -0.71684455       2.01832880      10.33920839       0.00000000 NULL
P       -0.85079202       2.57194180       6.05869970       0.00000000 NULL
P        1.18409060      -0.17835956       0.63502899       0.00000000 NULL
P        0.74814064       1.91461604       4.51103293       0.00000000 NULL
P        2.72425523       2.54873438      11.17555137       0.00000000 NULL
P        1.25313172       1.10116710      10.21697959       0.00000000 NULL
P        3.01737513       0.64034947       1.76576418       0.00000000 NULL
P       -0.00221583       1.55763726       1.66815856       0.00000000 NULL
P       -1.86701272       4.43165973       9.23337764       0.00000000 NULL
P       -0.05868656       0.62269614       6.06197420       0.00000000 NULL
P       -1.84337973       3.34156507       2.82412164       0.00000000 NULL
P        5.19044731      -0.34924409       3.72964289       0.00000000 NULL
P       -0.03803176       4.20502843       3.97963666       0.00000000 NULL
13
Lattice="5.3724271774087855 -0.46402713275149426 0.3747717576670309 -2.9521567463100076 4.967345713236151 0.46942545313437106 -0.22934927542591507 0.11120461179762971 12.541692885773267" Properties=species:S:1:pos:R:3:initial_magmoms:R:1:castep_labels:S:1 n_minim_iter=23 pbc="T T T"
P       -0.71921047       2.02052695      10.41558363       0.00000000 NULL
P       -0.85382139       2.58386905       6.10251767       0.00000000 NULL
P        1.19035160      -0.17964643       0.63829390       0.00000000 NULL
P        0.75529154       1.92547324       4.54605850       0.00000000 NULL
P        2.73999174       2.55913140      11.25935659       0.00000000 NULL
P        1.26130591       1.09895514      10.29617342       0.00000000 NULL
P        3.03483000       0.64588843       1.77495595       0.00000000 NULL
P       -0.00029021       1.56563703       1.67703810       0.00000000 NULL
P       -1.87317634       4.45117025       9.29884785       0.00000000 NULL
P       -0.05789727       0.61820220       6.10968183       0.00000000 NULL
P       -1.85231329       3.36202535       2.84251031       0.00000000 NULL
P        5.21559560      -0.34939920       3.76093627       0.00000000 NULL
P       -0.03580347       4.23302081       4.00324404       0.00000000 NULL
