10
Lattice="4.943369999999999 2.6998974721343274e-16 0.0 -0.5572403976114059 5.866604639769912 0.0 0.0 0.0 7.42106" Properties=species:S:1:pos:R:3:initial_magmoms:R:1:castep_labels:S:1 n_minim_iter=1 pbc="T T T"
P        1.54993731       4.03498731       2.73974775       0.00000000 NULL
P        1.82855751       1.10168499       4.68131225       0.00000000 NULL
P        3.47814954       4.88573005       2.12470662       0.00000000 NULL
P        3.75676974       1.95242773       5.29635338       0.00000000 NULL
P        2.64532751       0.07210937       3.12291637       0.00000000 NULL
P        2.36670731       3.00541169       4.29814363       0.00000000 NULL
P        2.71236371       0.15464898       0.86952560       0.00000000 NULL
P        2.43374351       3.08795130       6.55153440       0.00000000 NULL
P        0.56234523       4.60512683       0.94659702       0.00000000 NULL
P        0.84096543       1.67182451       6.47446298       0.00000000 NULL
10
Lattice="4.953659343983175 -0.0018691460275404414 0.0 -0.5606184937057557 5.883869965042643 0.0 0.0 0.0 7.438556937169354" Properties=species:S:1:pos:R:3:initial_magmoms:R:1:castep_labels:S:1 n_minim_iter=2 pbc="T T T"
P        1.55149190       4.04588188       2.74615751       0.00000000 NULL
P        1.83180115       1.10394690       4.69239942       0.00000000 NULL
P        3.48389503       4.89842272       2.12957553       0.00000000 NULL
P        3.76420428       1.95648773       5.30898141       0.00000000 NULL
P        2.65069916       0.07164959       3.13028698       0.00000000 NULL
P        2.37038991       3.01358457       4.30826996       0.00000000 NULL
P        2.71799383       0.15431750       0.87147154       0.00000000 NULL
P        2.43768458       3.09625248       6.56708540       0.00000000 NULL
P        0.56163126       4.61817101       0.94860409       0.00000000 NULL
P        0.84194051       1.67623603       6.48995284       0.00000000 NULL
10
Lattice="5.245161069969142 -0.05826640987643148 0.0 -0.6604081083732921 6.380945346261166 0.0 0.0 0.0 7.934271179375561" Properties=species:S:1:pos:R:3:initial_magmoms:R:1:castep_labels:S:1 n_minim_iter=3 pbc="T T T"
P        1.59267940       4.35840088       2.92764592       0.00000000 NULL
P        1.92288345       1.16792821       5.00662526       0.00000000 NULL
P        3.64352996       5.26153171       2.26730619       0.00000000 NULL
P        3.97373401       2.07105904       5.66696498       0.00000000 NULL
P        2.80262056       0.05733538       3.33892998       0.00000000 NULL
P        2.47241651       3.24780805       4.59534120       0.00000000 NULL
P        2.87736460       0.14356479       0.92664814       0.00000000 NULL
P        2.54716055       3.33403746       7.00762304       0.00000000 NULL
P        0.53820912       4.99305663       1.00515564       0.00000000 NULL
P        0.86841318       1.80258396       6.92911554       0.00000000 NULL
10
Lattice="5.254713437845702 -0.11703519293686976 0.0 -0.7312294672134488 6.478359166182285 0.0 0.0 0.0 8.019841587599576" Properties=species:S:1:pos:R:3:initial_magmoms:R:1:castep_labels:S:1 n_minim_iter=4 pbc="T T T"
P        1.54647426       4.40315364       2.95614466       0.00000000 NULL
P        1.91208900       1.16397405       5.06369693       0.00000000 NULL
P        3.59218388       5.29522631       2.28922795       0.00000000 NULL
P        3.95779862       2.05604673       5.73061363       0.00000000 NULL
P        2.80644424       0.02783645       3.36984170       0.00000000 NULL
P        2.44082951       3.26701603       4.64999989       0.00000000 NULL
P        2.88106320       0.11385169       0.94018977       0.00000000 NULL
P        2.51544847       3.35303127       7.07965182       0.00000000 NULL
P        0.48589726       5.05649511       1.01315626       0.00000000 NULL
P        0.85151199       1.81731553       7.00668533       0.00000000 NULL
10
Lattice="5.2226616020316055 -0.19263199097875816 0.0 -0.8173318525115482 6.572045256282424 0.0 0.0 0.0 8.077045011429593" Properties=species:S:1:pos:R:3:initial_magmoms:R:1:castep_labels:S:1 n_minim_iter=5 pbc="T T T"
P        1.47279868       4.44006911       2.97211172       0.00000000 NULL
P        1.88146460       1.15404648       5.10493329       0.00000000 NULL
P        3.49293405       5.31389163       2.30191852       0.00000000 NULL
P        3.90159997       2.02786900       5.77512649       0.00000000 NULL
P        2.78865998      -0.01166222       3.38484211       0.00000000 NULL
P        2.37999406       3.27436041       4.69220290       0.00000000 NULL
P        2.86208028       0.07366415       0.95364793       0.00000000 NULL
P        2.45341436       3.35968678       7.12339708       0.00000000 NULL
P        0.41429184       5.11281975       1.01662924       0.00000000 NULL
P        0.82295777       1.82679712       7.06041577       0.00000000 NULL
10
Lattice="5.1446181416925265 -0.30898596622782765 0.0 -0.9466189182544631 6.746046933822279 0.0 0.0 0.0 8.122708156239993" Properties=species:S:1:pos:R:3:initial_magmoms:R:1:castep_labels:S:1 n_minim_iter=6 pbc="T T T"
P        1.34776281       4.51934137       2.97777900       0.00000000 NULL
P        1.82107227       1.14631790       5.14492916       0.00000000 NULL
P        3.31705336       5.37207312       2.30711708       0.00000000 NULL
P        3.79036282       1.99904965       5.81559108       0.00000000 NULL
P        2.74818604      -0.07376647       3.38291173       0.00000000 NULL
P        2.27487658       3.29925700       4.73979642       0.00000000 NULL
P        2.81983022       0.01129241       0.97538773       0.00000000 NULL
P        2.34652076       3.38431588       7.14732043       0.00000000 NULL
P        0.30138868       5.21930308       1.01456706       0.00000000 NULL
P        0.77469813       1.84627961       7.10814110       0.00000000 NULL
10
Lattice="5.137260637354243 -0.3376374293766149 0.0 -0.9797920183869595 6.892118010924729 0.0 0.0 0.0 8.128859697224662" Properties=species:S:1:pos:R:3:initial_magmoms:R:1:castep_labels:S:1 n_minim_iter=7 pbc="T T T"
P        1.31220992       4.61473948       2.96924521       0.00000000 NULL
P        1.80210593       1.16868047       5.15961449       0.00000000 NULL
P        3.27858887       5.48354713       2.29996589       0.00000000 NULL
P        3.76848488       2.03748812       5.82889380       0.00000000 NULL
P        2.74926734      -0.09251893       3.36273535       0.00000000 NULL
P        2.25937133       3.35354008       4.76612435       0.00000000 NULL
P        2.82283959      -0.00233122       0.99448024       0.00000000 NULL
P        2.33294359       3.44372778       7.13437946       0.00000000 NULL
P        0.27531143       5.31620371       1.00712449       0.00000000 NULL
P        0.76520744       1.87014470       7.12173521       0.00000000 NULL
10
Lattice="5.094515972921297 -0.3786741246874784 0.0 -1.0236744332794627 6.903049811130859 0.0 0.0 0.0 8.127009698283475" Properties=species:S:1:pos:R:3:initial_magmoms:R:1:castep_labels:S:1 n_minim_iter=8 pbc="T T T"
P        1.25921924       4.61324180       2.96140617       0.00000000 NULL
P        1.77105646       1.16171690       5.16560353       0.00000000 NULL
P        3.20488692       5.46791553       2.29374383       0.00000000 NULL
P        3.71672413       2.01639062       5.83326587       0.00000000 NULL
P        2.72927527      -0.12013216       3.34894677       0.00000000 NULL
P        2.21743806       3.33139274       4.77806293       0.00000000 NULL
P        2.80206407      -0.02800183       1.00511366       0.00000000 NULL
P        2.29022685       3.42352308       7.12189604       0.00000000 NULL
P        0.23393936       5.31051502       1.00256223       0.00000000 NULL
P        0.74577658       1.85899012       7.12444747       0.00000000 NULL
10
Lattice="5.111150121407135 -0.38682064237880864 0.0 -1.0352174935808565 6.954942991629334 0.0 0.0 0.0 8.16459251217172" Properties=species:S:1:pos:R:3:initial_magmoms:R:1:castep_labels:S:1 n_minim_iter=9 pbc="T T T"
P        1.25431257       4.64777535       2.97235866       0.00000000 NULL
P        1.77192131       1.17030386       5.19223385       0.00000000 NULL
P        3.20826350       5.50818618       2.30159129       0.00000000 NULL
P        3.72587224       2.03071468       5.86300122       0.00000000 NULL
P        2.73948136      -0.12551389       3.35963363       0.00000000 NULL
P        2.22187261       3.35195761       4.80495888       0.00000000 NULL
P        2.81316081      -0.03138386       1.01369433       0.00000000 NULL
P        2.29555206       3.44608763       7.15089818       0.00000000 NULL
P        0.22834257       5.34592863       1.00503696       0.00000000 NULL
P        0.74595132       1.86845714       7.15955556       0.00000000 NULL
10
Lattice="5.104711751883258 -0.39830857736607933 0.0 -1.048125176619804 6.977485942192092 0.0 0.0 0.0 8.175006530279694" Properties=species:S:1:pos:R:3:initial_magmoms:R:1:castep_labels:S:1 n_minim_iter=10 pbc="T T T"
P        1.23990043       4.66149188       2.97321563       0.00000000 NULL
P        1.76396301       1.17274891       5.20179090       0.00000000 NULL
P        3.19155865       5.52124707       2.30203368       0.00000000 NULL
P        3.71562124       2.03250410       5.87297285       0.00000000 NULL
P        2.73743764      -0.13368250       3.35916735       0.00000000 NULL
P        2.21337505       3.35506047       4.81583918       0.00000000 NULL
P        2.81108680      -0.03816631       1.01891681       0.00000000 NULL
P        2.28702421       3.45057666       7.15608972       0.00000000 NULL
P        0.21735840       5.35846974       1.00477439       0.00000000 NULL
P        0.74142099       1.86972677       7.17023214       0.00000000 NULL
10
Lattice="5.0449525965065085 -0.5226748769075246 0.0 -1.1889820605709949 7.239680159617843 0.0 0.0 0.0 8.310647778258904" Properties=species:S:1:pos:R:3:initial_magmoms:R:1:castep_labels:S:1 n_minim_iter=11 pbc="T T T"
P        1.08354717       4.82628246       2.98784849       0.00000000 NULL
P        1.67803820       1.20644238       5.32279929       0.00000000 NULL
P        3.01734236       5.68206034       2.31083598       0.00000000 NULL
P        3.61183339       2.06222026       5.99981180       0.00000000 NULL
P        2.72236470      -0.22498692       3.36058503       0.00000000 NULL
P        2.12787367       3.39485316       4.95006275       0.00000000 NULL
P        2.79555342      -0.11271743       1.08057990       0.00000000 NULL
P        2.20106239       3.50712265       7.23006788       0.00000000 NULL
P        0.10019440       5.50506282       1.00418682       0.00000000 NULL
P        0.69468543       1.88522274       7.30646095       0.00000000 NULL
10
Lattice="5.0073804394801 -0.5402816754515825 0.0 -1.205641829576661 7.372851370169263 0.0 0.0 0.0 8.720140288033669" Properties=species:S:1:pos:R:3:initial_magmoms:R:1:castep_labels:S:1 n_minim_iter=12 pbc="T T T"
P        0.99895894       4.95610876       3.08253858       0.00000000 NULL
P        1.60177985       1.26968308       5.63760171       0.00000000 NULL
P        2.97406905       5.83726915       2.38264670       0.00000000 NULL
P        3.57688996       2.15084347       6.33749359       0.00000000 NULL
P        2.72803701      -0.27337127       3.47575217       0.00000000 NULL
P        2.12521609       3.41305441       5.24438812       0.00000000 NULL
P        2.80247795      -0.14052318       1.16971109       0.00000000 NULL
P        2.19965703       3.54590250       7.55042920       0.00000000 NULL
P        0.08326512       5.56475362       1.04763086       0.00000000 NULL
P        0.68608604       1.87832793       7.67250943       0.00000000 NULL
10
Lattice="4.881531000418652 -0.6774713898892294 0.0 -1.354267043507005 7.388113056659448 0.0 0.0 0.0 8.378647013790088" Properties=species:S:1:pos:R:3:initial_magmoms:R:1:castep_labels:S:1 n_minim_iter=13 pbc="T T T"
P        0.84065691       4.92382387       2.94501631       0.00000000 NULL
P        1.51779043       1.22976734       5.43363070       0.00000000 NULL
P        2.74939500       5.74255474       2.27916782       0.00000000 NULL
P        3.42652852       2.04849822       6.09947919       0.00000000 NULL
P        2.65817971      -0.34545377       3.32810854       0.00000000 NULL
P        1.98104619       3.34860276       5.05053847       0.00000000 NULL
P        2.73060059      -0.22608633       1.13518724       0.00000000 NULL
P        2.05346707       3.46797020       7.24345977       0.00000000 NULL
P       -0.05240983       5.54508747       1.01338264       0.00000000 NULL
P        0.62472369       1.85103094       7.36526437       0.00000000 NULL
10
Lattice="4.955069689570889 -0.6585182551732229 0.0 -1.3400638137912249 7.577170307068888 0.0 0.0 0.0 8.622075040845184" Properties=species:S:1:pos:R:3:initial_magmoms:R:1:castep_labels:S:1 n_minim_iter=14 pbc="T T T"
P        0.87454974       5.05918548       3.03166843       0.00000000 NULL
P        1.54458165       1.27060032       5.59040661       0.00000000 NULL
P        2.82410946       5.91924588       2.34238826       0.00000000 NULL
P        3.49414137       2.13066073       6.27968678       0.00000000 NULL
P        2.69789440      -0.33147360       3.42774550       0.00000000 NULL
P        2.02786249       3.45711155       5.19432954       0.00000000 NULL
P        2.77426765      -0.20745851       1.16501685       0.00000000 NULL
P        2.10423574       3.58112665       7.45705819       0.00000000 NULL
P       -0.02880393       5.69060229       1.03959529       0.00000000 NULL
P        0.64122798       1.90201713       7.58247975       0.00000000 NULL
10
Lattice="4.936013694757411 -0.653282675047081 0.0 -1.3317023420044365 7.5442952865490875 0.0 0.0 0.0 8.597620276550545" Properties=species:S:1:pos:R:3:initial_magmoms:R:1:castep_labels:S:1 n_minim_iter=15 pbc="T T T"
P        0.87153926       5.03998376       3.02138233       0.00000000 NULL
P        1.53739043       1.26783612       5.57623795       0.00000000 NULL
P        2.81587573       5.89811028       2.33405162       0.00000000 NULL
P        3.48172690       2.12596263       6.26356866       0.00000000 NULL
P        2.68842075      -0.33082783       3.41622811       0.00000000 NULL
P        2.02256958       3.44131981       5.18139216       0.00000000 NULL
P        2.76485890      -0.20665469       1.16294412       0.00000000 NULL
P        2.09900773       3.56549295       7.43467615       0.00000000 NULL
P       -0.02631525       5.66540258       1.03702570       0.00000000 NULL
P        0.63953592       1.89325494       7.56059457       0.00000000 NULL
