6
Lattice="3.247310000000001 5.350923114890062e-16 9.53712766721667e-16 1.5062620654013104 5.857377723250652 1.172878423881597e-15 0.3765228571628246 2.4883419501894233 7.076425486173188" Properties=species:S:1:pos:R:3:initial_magmoms:R:1:castep_labels:S:1 n_minim_iter=1 pbc="T T T"
P        3.56876665       4.05494002       1.75859080       0.00000000 NULL
P        3.66846250       6.54662901       6.73066285       0.00000000 NULL
P        0.74039889       2.62492474       5.37667445       0.00000000 NULL
P        1.65510864       2.93225666       0.11413001       0.00000000 NULL
P        1.48088919       4.08323362       4.09041170       0.00000000 NULL
P        0.43450050       1.00682258       1.09443997       0.00000000 NULL
6
Lattice="3.2495233961546135 7.220404176698352e-06 0.00024849171874191596 1.5073017712803214 5.857836547062944 -0.0013149289173586356 0.3773265359647817 2.4868084373698967 7.072245587587936" Properties=species:S:1:pos:R:3:initial_magmoms:R:1:castep_labels:S:1 n_minim_iter=2 pbc="T T T"
P        3.57139281       4.05475526       1.75703514       0.00000000 NULL
P        3.67144503       6.54584318       6.72569039       0.00000000 NULL
P        0.74130022       2.62384592       5.37343031       0.00000000 NULL
P        1.65624630       2.93201348       0.11373654       0.00000000 NULL
P        1.48224497       4.08257385       4.08743941       0.00000000 NULL
P        0.43488212       1.00677347       1.09352051       0.00000000 NULL
6
Lattice="3.442845794166975 0.00047762908736573696 0.021773987816929703 1.5978227119543507 5.896516591170354 -0.11063514793793244 0.4470101844322931 2.359067684417728 6.723486638972727" Properties=species:S:1:pos:R:3:initial_magmoms:R:1:castep_labels:S:1 n_minim_iter=3 pbc="T T T"
P        3.80069059       4.03919292       1.62827017       0.00000000 NULL
P        3.93099909       6.48173383       6.31139932       0.00000000 NULL
P        0.81961486       2.53398226       5.10272180       0.00000000 NULL
P        1.75553250       2.91051459       0.08159260       0.00000000 NULL
P        1.60028032       4.02784031       3.83974895       0.00000000 NULL
P        0.46800662       1.00338560       1.01683621       0.00000000 NULL
6
Lattice="3.5117491141484782 0.000673669866150462 0.06933447429090703 1.6301370712113497 5.7937571317166014 -0.16453649138164622 0.5587918529580865 2.223625692499509 6.328846570753947" Properties=species:S:1:pos:R:3:initial_magmoms:R:1:castep_labels:S:1 n_minim_iter=4 pbc="T T T"
P        3.91190573       3.93512756       1.55172561       0.00000000 NULL
P        4.10334116       6.29756393       5.90797055       0.00000000 NULL
P        0.91513328       2.42148568       4.81082263       0.00000000 NULL
P        1.78665292       2.83116197       0.07764676       0.00000000 NULL
P        1.69246199       3.90378406       3.59556573       0.00000000 NULL
P        0.49263814       0.98657027       0.93407291       0.00000000 NULL
6
Lattice="3.571598915669617 0.030037196797725964 0.11030506300190196 1.7108631965822483 5.80528981169199 -0.23466829379371976 0.6775136972774536 2.1184564118478 6.2317272656903" Properties=species:S:1:pos:R:3:initial_magmoms:R:1:castep_labels:S:1 n_minim_iter=5 pbc="T T T"
P        4.04759481       3.92866610       1.54520320       0.00000000 NULL
P        4.30850273       6.24155825       5.76457843       0.00000000 NULL
P        1.01975540       2.34204799       4.74456120       0.00000000 NULL
P        1.83959875       2.82278633       0.06231007       0.00000000 NULL
P        1.81442890       3.86061290       3.51310623       0.00000000 NULL
P        0.51903124       0.98522544       0.89704919       0.00000000 NULL
6
Lattice="3.582093370042676 0.046917379697531576 0.13705621845557242 1.7461788904337585 5.736721552308417 -0.2567475574000018 0.7499606233234123 2.046292646686558 6.014441203025668" Properties=species:S:1:pos:R:3:initial_magmoms:R:1:castep_labels:S:1 n_minim_iter=6 pbc="T T T"
P        4.10462143       3.87449116       1.51995228       0.00000000 NULL
P        4.40390755       6.14710872       5.54112756       0.00000000 NULL
P        1.08138295       2.27841210       4.58983539       0.00000000 NULL
P        1.85724461       2.77562335       0.06012701       0.00000000 NULL
P        1.87866275       3.79587635       3.38229405       0.00000000 NULL
P        0.52874815       0.97942399       0.84630197       0.00000000 NULL
6
Lattice="3.622199599084976 0.06755116140690151 0.15069278675467232 1.8020005843045517 5.780239606018385 -0.27552475388983494 0.8001384554439015 2.0327796963047713 5.997485378000238" Properties=species:S:1:pos:R:3:initial_magmoms:R:1:castep_labels:S:1 n_minim_iter=7 pbc="T T T"
P        4.18794468       3.90737888       1.53660969       0.00000000 NULL
P        4.51294684       6.19024285       5.50197286       0.00000000 NULL
P        1.12884958       2.27109939       4.58460649       0.00000000 NULL
P        1.89849661       2.78744063       0.05600973       0.00000000 NULL
P        1.94650226       3.81872015       3.36585451       0.00000000 NULL
P        0.53795116       0.99044818       0.83069323       0.00000000 NULL
6
Lattice="3.618578335367569 0.07857491510739238 0.15504670123396397 1.8202051034867475 5.759261479913077 -0.26748730914410807 0.8176537316589733 2.030243996605069 5.902476836889127" Properties=species:S:1:pos:R:3:initial_magmoms:R:1:castep_labels:S:1 n_minim_iter=8 pbc="T T T"
P        4.20376250       3.89991210       1.53307711       0.00000000 NULL
P        4.53692593       6.18588327       5.41120521       0.00000000 NULL
P        1.14421977       2.26584736       4.51926701       0.00000000 NULL
P        1.90798093       2.77033126       0.05931279       0.00000000 NULL
P        1.96822559       3.81377167       3.31583110       0.00000000 NULL
P        0.53652831       0.99382527       0.80876750       0.00000000 NULL
6
Lattice="3.627316654879927 0.09127119612319506 0.15977039387177275 1.847159448094101 5.781224848043783 -0.2596819448872589 0.8386895196384507 2.045327532346264 5.881483546874312" Properties=species:S:1:pos:R:3:initial_magmoms:R:1:castep_labels:S:1 n_minim_iter=9 pbc="T T T"
P        4.23486242       3.92423933       1.54938348       0.00000000 NULL
P        4.57851461       6.23063210       5.38924038       0.00000000 NULL
P        1.16348881       2.27861776       4.50999682       0.00000000 NULL
P        1.92712731       2.77444804       0.06391863       0.00000000 NULL
P        1.99930542       3.83973554       3.30814335       0.00000000 NULL
P        0.53637625       1.00373077       0.79914506       0.00000000 NULL
6
Lattice="3.618542028898113 0.10976073742237674 0.1636836497150814 1.8764400960964331 5.791858080876658 -0.2357235853602949 0.8603678679922625 2.075096864802845 5.816502277649404" Properties=species:S:1:pos:R:3:initial_magmoms:R:1:castep_labels:S:1 n_minim_iter=10 pbc="T T T"
P        4.25464652       3.94995730       1.56791709       0.00000000 NULL
P        4.60939178       6.28670727       5.33354022       0.00000000 NULL
P        1.18203801       2.30100311       4.47125757       0.00000000 NULL
P        1.94440739       2.77002056       0.07493791       0.00000000 NULL
P        2.03128365       3.87236514       3.28240754       0.00000000 NULL
P        0.53078470       1.01701555       0.78132008       0.00000000 NULL
6
Lattice="3.6042951465114927 0.13673263877736652 0.17057419629858225 1.9184826099498158 5.845222233799134 -0.18735930309940121 0.8943995669102177 2.1501481643898384 5.801064105762732" Properties=species:S:1:pos:R:3:initial_magmoms:R:1:castep_labels:S:1 n_minim_iter=11 pbc="T T T"
P        4.28143545       4.02023115       1.62214617       0.00000000 NULL
P        4.65550942       6.42439488       5.33840836       0.00000000 NULL
P        1.21025803       2.36187271       4.47574824       0.00000000 NULL
P        1.97158503       2.78269610       0.09956811       0.00000000 NULL
P        2.07973541       3.95627380       3.29624181       0.00000000 NULL
P        0.52052117       1.04350822       0.77168623       0.00000000 NULL
6
Lattice="3.560221498656537 0.15043173728069292 0.17211797298266027 1.9227490121578668 5.848293887263247 -0.14175280518406888 0.9031507259747459 2.2045751080562694 5.740237781394004" Properties=species:S:1:pos:R:3:initial_magmoms:R:1:castep_labels:S:1 n_minim_iter=12 pbc="T T T"
P        4.25381568       4.04746979       1.64630085       0.00000000 NULL
P        4.63357357       6.49144435       5.30550667       0.00000000 NULL
P        1.21377793       2.40243215       4.44076837       0.00000000 NULL
P        1.96871310       2.77532575       0.12106434       0.00000000 NULL
P        2.08648938       3.99854954       3.28101472       0.00000000 NULL
P        0.50469080       1.05744181       0.76061572       0.00000000 NULL
6
Lattice="3.5574824114509744 0.15708971517282652 0.17743209025318665 1.9334879031894356 5.886699575376996 -0.11962389805412586 0.9195153328775205 2.2441071494468683 5.770016902735649" Properties=species:S:1:pos:R:3:initial_magmoms:R:1:castep_labels:S:1 n_minim_iter=13 pbc="T T T"
P        4.26332418       4.08607494       1.67783298       0.00000000 NULL
P        4.65256593       6.56360795       5.34699591       0.00000000 NULL
P        1.22692860       2.43577024       4.46958760       0.00000000 NULL
P        1.97822821       2.78920753       0.13435797       0.00000000 NULL
P        2.10496608       4.04428640       3.30812556       0.00000000 NULL
P        0.50023598       1.06985343       0.76496097       0.00000000 NULL
6
Lattice="3.542808374118711 0.16164031659465697 0.18017278227037045 1.9348895696813189 5.900148697626329 -0.10054007477284335 0.9272733371315736 2.270971293765944 5.759790843506333" Properties=species:S:1:pos:R:3:initial_magmoms:R:1:castep_labels:S:1 n_minim_iter=14 pbc="T T T"
P        4.25550398       4.10512914       1.69300821       0.00000000 NULL
P        4.64934654       6.60335816       5.34909196       0.00000000 NULL
P        1.23191222       2.45700970       4.46675591       0.00000000 NULL
P        1.97857827       2.79171076       0.14469160       0.00000000 NULL
P        2.11098615       4.06993672       3.31027166       0.00000000 NULL
P        0.49368968       1.07725234       0.76335716       0.00000000 NULL
6
Lattice="3.5132510533218397 0.1713059861231966 0.1892937814637149 1.9386140081567165 5.942805554588826 -0.054194452804030055 0.9511289453855315 2.3391888041350675 5.750881788382809" Properties=species:S:1:pos:R:3:initial_magmoms:R:1:castep_labels:S:1 n_minim_iter=15 pbc="T T T"
P        4.24278874       4.15722478       1.73579378       0.00000000 NULL
P        4.65037741       6.70894292       5.37075305       0.00000000 NULL
P        1.24847276       2.51180185       4.47222176       0.00000000 NULL
P        1.98165803       2.80219644       0.17099678       0.00000000 NULL
P        2.12993722       4.13844476       3.32481439       0.00000000 NULL
P        0.47874811       1.09643775       0.76236600       0.00000000 NULL
6
Lattice="3.399193717481893 0.19611744524135252 0.24334324099052598 1.9304625996566254 6.130394385266084 0.13764011840963128 1.0746992769854353 2.6183392684494837 5.7085261119583475" Properties=species:S:1:pos:R:3:initial_magmoms:R:1:castep_labels:S:1 n_minim_iter=16 pbc="T T T"
P        4.18975572       4.36978119       1.92045440       0.00000000 NULL
P        4.66527250       7.13853738       5.46930098       0.00000000 NULL
P        1.33660040       2.73618617       4.49209009       0.00000000 NULL
P        1.98693558       2.84517581       0.28626281       0.00000000 NULL
P        2.21402005       4.42367655       3.38196890       0.00000000 NULL
P        0.41512789       1.17433060       0.76049780       0.00000000 NULL
