8
Lattice="5.316400000000001 0.0 -7.443475318304223e-32 0.0 5.91422 0.0 -2.6582000000000003 0.0 5.391689245757803" Properties=species:S:1:pos:R:3:initial_magmoms:R:1:castep_labels:S:1 n_minim_iter=1 pbc="T T T"
P        2.60568114       3.97793335       3.45981949       0.00000000 NULL
P        0.05251885       1.02082335       1.93186974       0.00000000 NULL
P       -0.05251886       4.89339665       1.93186974       0.00000000 NULL
P        2.71071885       1.93628665       3.45981949       0.00000000 NULL
P        2.52848596       1.26224654       0.99541744       0.00000000 NULL
P        0.12971404       4.21935654       4.39627179       0.00000000 NULL
P       -0.12971404       1.69486346       4.39627179       0.00000000 NULL
P        2.78791404       4.65197346       0.99541744       0.00000000 NULL
8
Lattice="5.311253750136925 0.0 -1.3411361040190848e-18 0.0 5.911734202088958 0.0 -2.6556268750684624 0.0 5.392777964729794" Properties=species:S:1:pos:R:3:initial_magmoms:R:1:castep_labels:S:1 n_minim_iter=2 pbc="T T T"
P        2.60311039       3.97639876       3.46059594       0.00000000 NULL
P        0.05251648       1.02053166       1.93218201       0.00000000 NULL
P       -0.05251649       4.89120254       1.93218201       0.00000000 NULL
P        2.70814336       1.93533544       3.46059594       0.00000000 NULL
P        2.52598592       1.26159486       0.99587813       0.00000000 NULL
P        0.12964094       4.21746197       4.39689982       0.00000000 NULL
P       -0.12964095       1.69427224       4.39689982       0.00000000 NULL
P        2.78526782       4.65013934       0.99587813       0.00000000 NULL
8
Lattice="4.8781250053789895 0.0 6.045652240752525e-17 0.0 5.6995966609469715 0.0 -2.4390625026894948 0.0 5.489948857125375" Properties=species:S:1:pos:R:3:initial_magmoms:R:1:castep_labels:S:1 n_minim_iter=3 pbc="T T T"
P        2.38691289       3.84554270       3.53001286       0.00000000 NULL
P        0.05214960       0.99574437       1.95993598       0.00000000 NULL
P       -0.05214961       4.70385230       1.95993598       0.00000000 NULL
P        2.49121210       1.85405397       3.53001286       0.00000000 NULL
P        2.31576943       1.20602760       1.03711348       0.00000000 NULL
P        0.12329306       4.05582593       4.45283536       0.00000000 NULL
P       -0.12329307       1.64377073       4.45283536       0.00000000 NULL
P        2.56235557       4.49356906       1.03711348       0.00000000 NULL
8
Lattice="4.847632710449405 0.0 5.114146085707274e-17 0.0 5.846333195110862 0.0 -2.4238163552247025 0.0 5.6149935405503815" Properties=species:S:1:pos:R:3:initial_magmoms:R:1:castep_labels:S:1 n_minim_iter=4 pbc="T T T"
P        2.37006051       3.96288785       3.61857679       0.00000000 NULL
P        0.05375584       1.03972125       1.99641673       0.00000000 NULL
P       -0.05375584       4.80661194       1.99641673       0.00000000 NULL
P        2.47757219       1.88344534       3.61857679       0.00000000 NULL
P        2.29994582       1.23114614       1.07261349       0.00000000 NULL
P        0.12387052       4.15431274       4.54238003       0.00000000 NULL
P       -0.12387053       1.69202046       4.54238003       0.00000000 NULL
P        2.54768688       4.61518706       1.07261349       0.00000000 NULL
8
Lattice="4.778903833345671 0.0 4.2399840748523687e-17 0.0 5.745678267801583 0.0 -2.3894519166728356 0.0 5.5967527616803805" Properties=species:S:1:pos:R:3:initial_magmoms:R:1:castep_labels:S:1 n_minim_iter=5 pbc="T T T"
P        2.33552188       3.90063527       3.61146945       0.00000000 NULL
P        0.05393003       1.02779613       1.98528329       0.00000000 NULL
P       -0.05393004       4.71788213       1.98528329       0.00000000 NULL
P        2.44338195       1.84504300       3.61146945       0.00000000 NULL
P        2.26661529       1.20584197       1.07488507       0.00000000 NULL
P        0.12283662       4.07868110       4.52186767       0.00000000 NULL
P       -0.12283662       1.66699716       4.52186767       0.00000000 NULL
P        2.51228853       4.53983630       1.07488507       0.00000000 NULL
8
Lattice="4.772990563636921 0.0 3.988476258079334e-17 0.0 5.723321672208801 0.0 -2.3864952818184606 0.0 5.613801565700792" Properties=species:S:1:pos:R:3:initial_magmoms:R:1:castep_labels:S:1 n_minim_iter=6 pbc="T T T"
P        2.33176973       3.89330244       3.62750145       0.00000000 NULL
P        0.05472554       1.03164160       1.98630010       0.00000000 NULL
P       -0.05472555       4.69168007       1.98630010       0.00000000 NULL
P        2.44122082       1.83001923       3.62750145       0.00000000 NULL
P        2.26325944       1.19766529       1.08338444       0.00000000 NULL
P        0.12323584       4.05932612       4.53041711       0.00000000 NULL
P       -0.12323585       1.66399555       4.53041711       0.00000000 NULL
P        2.50973112       4.52565639       1.08338444       0.00000000 NULL
8
Lattice="4.768115833716282 0.0 4.03251396001738e-17 0.0 5.635349156796943 0.0 -2.384057916858141 0.0 5.619773210687437" Properties=species:S:1:pos:R:3:initial_magmoms:R:1:castep_labels:S:1 n_minim_iter=7 pbc="T T T"
P        2.32718187       3.85288875       3.64461364       0.00000000 NULL
P        0.05687604       1.03521417       1.97515955       0.00000000 NULL
P       -0.05687605       4.60013498       1.97515955       0.00000000 NULL
P        2.44093396       1.78246040       3.64461364       0.00000000 NULL
P        2.25959143       1.17083186       1.09734276       0.00000000 NULL
P        0.12446648       3.98850644       4.52243043       0.00000000 NULL
P       -0.12446649       1.64684272       4.52243043       0.00000000 NULL
P        2.50852440       4.46451730       1.09734276       0.00000000 NULL
8
Lattice="4.835573715208644 0.0 4.0561832522995465e-17 0.0 5.551577978111371 0.0 -2.417786857604322 0.0 5.5522092543301484" Properties=species:S:1:pos:R:3:initial_magmoms:R:1:castep_labels:S:1 n_minim_iter=8 pbc="T T T"
P        2.35727622       3.81985135       3.61800812       0.00000000 NULL
P        0.06051063       1.04406236       1.93420112       0.00000000 NULL
P       -0.06051064       4.50751562       1.93420112       0.00000000 NULL
P        2.47829749       1.73172663       3.61800812       0.00000000 NULL
P        2.28995091       1.14576338       1.09892996       0.00000000 NULL
P        0.12783594       3.92155237       4.45327928       0.00000000 NULL
P       -0.12783595       1.63002561       4.45327928       0.00000000 NULL
P        2.54562280       4.40581460       1.09892996       0.00000000 NULL
8
Lattice="4.850228851491223 0.0 5.940175133154728e-17 0.0 5.432429849417742 0.0 -2.4251144257456114 0.0 5.411781892306086" Properties=species:S:1:pos:R:3:initial_magmoms:R:1:castep_labels:S:1 n_minim_iter=9 pbc="T T T"
P        2.36077751       3.75954434       3.54556405       0.00000000 NULL
P        0.06433691       1.04332941       1.86621783       0.00000000 NULL
P       -0.06433692       4.38910044       1.86621783       0.00000000 NULL
P        2.48945134       1.67288551       3.54556405       0.00000000 NULL
P        2.29423325       1.11668916       1.08967499       0.00000000 NULL
P        0.13088117       3.83290408       4.32210689       0.00000000 NULL
P       -0.13088118       1.59952577       4.32210689       0.00000000 NULL
P        2.55599560       4.31574069       1.08967499       0.00000000 NULL
8
Lattice="4.917871859423484 0.0 3.3815217837666344e-17 0.0 5.485434172521117 0.0 -2.458935929711742 0.0 5.438623947937335" Properties=species:S:1:pos:R:3:initial_magmoms:R:1:castep_labels:S:1 n_minim_iter=10 pbc="T T T"
P        2.39275336       3.80189282       3.56830829       0.00000000 NULL
P        0.06618257       1.05917574       1.87031565       0.00000000 NULL
P       -0.06618257       4.42625843       1.87031565       0.00000000 NULL
P        2.52511849       1.68354135       3.56830829       0.00000000 NULL
P        2.32553945       1.12778583       1.10030920       0.00000000 NULL
P        0.13339647       3.87050292       4.33831473       0.00000000 NULL
P       -0.13339648       1.61493125       4.33831473       0.00000000 NULL
P        2.59233240       4.35764834       1.10030920       0.00000000 NULL
8
Lattice="4.914953312886357 0.0 3.274397141372943e-17 0.0 5.450874880450044 0.0 -2.4574766564431787 0.0 5.416138219213341" Properties=species:S:1:pos:R:3:initial_magmoms:R:1:castep_labels:S:1 n_minim_iter=11 pbc="T T T"
P        2.39059782       3.78044428       3.55697662       0.00000000 NULL
P        0.06687883       1.05500684       1.85916159       0.00000000 NULL
P       -0.06687884       4.39586804       1.85916159       0.00000000 NULL
P        2.52435549       1.67043060       3.55697662       0.00000000 NULL
P        2.32350050       1.12047519       1.09950775       0.00000000 NULL
P        0.13397615       3.84591263       4.31663045       0.00000000 NULL
P       -0.13397616       1.60496225       4.31663045       0.00000000 NULL
P        2.59145281       4.33039969       1.09950775       0.00000000 NULL
8
Lattice="4.925321960171328 -3.5537905048327507e-34 2.512394986200303e-17 -5.0474589972517466e-34 5.440374498841777 -1.700223120793228e-19 -2.462660980085664 -1.6893881491842412e-19 5.403542343167805" Properties=species:S:1:pos:R:3:initial_magmoms:R:1:castep_labels:S:1 n_minim_iter=12 pbc="T T T"
P        2.39484480       3.77620148       3.55242487       0.00000000 NULL
P        0.06781617       1.05601423       1.85111745       0.00000000 NULL
P       -0.06781618       4.38436027       1.85111745       0.00000000 NULL
P        2.53047715       1.66417302       3.55242487       0.00000000 NULL
P        2.32771162       1.11837387       1.10094789       0.00000000 NULL
P        0.13494935       3.83856112       4.30259443       0.00000000 NULL
P       -0.13494936       1.60181338       4.30259443       0.00000000 NULL
P        2.59761033       4.32200063       1.10094789       0.00000000 NULL
8
Lattice="5.044480569990799 -3.287304263741216e-34 5.4513809043499424e-17 -4.9588999863877884e-34 5.341043177127358 -1.6581330241446448e-19 -2.5222402849953993 -1.6585430009719495e-19 5.269774241389177" Properties=species:S:1:pos:R:3:initial_magmoms:R:1:castep_labels:S:1 n_minim_iter=13 pbc="T T T"
P        2.44362875       3.73912079       3.50457874       0.00000000 NULL
P        0.07861153       1.06859920       1.76519549       0.00000000 NULL
P       -0.07861154       4.27244398       1.76519549       0.00000000 NULL
P        2.60085181       1.60192239       3.50457874       0.00000000 NULL
P        2.37598395       1.09956500       1.11696247       0.00000000 NULL
P        0.14625633       3.77008659       4.15281176       0.00000000 NULL
P       -0.14625633       1.57095658       4.15281176       0.00000000 NULL
P        2.66849661       4.24147817       1.11696247       0.00000000 NULL
8
Lattice="4.971246344650767 -3.3508915562233195e-34 5.240109349362215e-17 -4.9563480991370265e-34 5.338094730653068 -1.629024096763401e-19 -2.4856231723253837 -1.657627426036211e-19 5.17726207651792" Properties=species:S:1:pos:R:3:initial_magmoms:R:1:castep_labels:S:1 n_minim_iter=14 pbc="T T T"
P        2.39796853       3.75594294       3.48032051       0.00000000 NULL
P        0.08765464       1.08689557       1.69694155       0.00000000 NULL
P       -0.08765464       4.25119916       1.69694155       0.00000000 NULL
P        2.57327781       1.58215179       3.48032051       0.00000000 NULL
P        2.33256730       1.10894661       1.14179395       0.00000000 NULL
P        0.15305587       3.77799397       4.03546811       0.00000000 NULL
P       -0.15305587       1.56010076       4.03546811       0.00000000 NULL
P        2.63867904       4.22914812       1.14179395       0.00000000 NULL
8
Lattice="5.112909902381949 -3.1715753100139563e-34 8.197815573778841e-17 -4.9372206069807925e-34 5.306647383424057 -1.6423181665603294e-19 -2.5564549511909744 -1.6478621468732998e-19 5.219512454237296" Properties=species:S:1:pos:R:3:initial_magmoms:R:1:castep_labels:S:1 n_minim_iter=15 pbc="T T T"
P        2.46569174       3.73545880       3.51502028       0.00000000 NULL
P        0.09076321       1.08213510       1.70449216       0.00000000 NULL
P       -0.09076321       4.22451228       1.70449216       0.00000000 NULL
P        2.64721816       1.57118859       3.51502028       0.00000000 NULL
P        2.39894092       1.10369459       1.15787688       0.00000000 NULL
P        0.15751402       3.75701828       4.06163556       0.00000000 NULL
P       -0.15751403       1.54962910       4.06163556       0.00000000 NULL
P        2.71396897       4.20295280       1.15787688       0.00000000 NULL
8
Lattice="5.06758064613218 -3.16967874306504e-34 8.517344943080008e-17 -4.91272582842083e-34 5.276490286535407 -1.6332282266134143e-19 -2.53379032306609 -1.6384975264582287e-19 5.19062337797471" Properties=species:S:1:pos:R:3:initial_magmoms:R:1:castep_labels:S:1 n_minim_iter=16 pbc="T T T"
P        2.44285979       3.71524699       3.49903032       0.00000000 NULL
P        0.09093052       1.07700185       1.69159305       0.00000000 NULL
P       -0.09093053       4.19948844       1.69159305       0.00000000 NULL
P        2.62472085       1.56124329       3.49903032       0.00000000 NULL
P        2.37686479       1.09837846       1.15589272       0.00000000 NULL
P        0.15692553       3.73662360       4.03473065       0.00000000 NULL
P       -0.15692554       1.53986668       4.03473065       0.00000000 NULL
P        2.69071585       4.17811183       1.15589272       0.00000000 NULL
8
Lattice="5.076833778260167 -3.1778253581081104e-34 8.379054265530145e-17 -4.922590482036512e-34 5.2879098851246304 -1.6331802809235245e-19 -2.5384168891300836 -1.6420436305966813e-19 5.1904709999942416" Properties=species:S:1:pos:R:3:initial_magmoms:R:1:castep_labels:S:1 n_minim_iter=17 pbc="T T T"
P        2.44671544       3.72445135       3.50170989       0.00000000 NULL
P        0.09170144       1.08049640       1.68876110       0.00000000 NULL
P       -0.09170145       4.20741348       1.68876110       0.00000000 NULL
P        2.63011833       1.56345854       3.50170989       0.00000000 NULL
P        2.38080292       1.10170580       1.15911330       0.00000000 NULL
P        0.15761397       3.74566074       4.03135768       0.00000000 NULL
P       -0.15761397       1.54224914       4.03135768       0.00000000 NULL
P        2.69603086       4.18620408       1.15911330       0.00000000 NULL
8
Lattice="5.077491424508145 -3.173201476998934e-34 8.304659669839355e-17 -4.919913308355841e-34 5.285177537981991 -1.6318103335668588e-19 -2.5387457122540726 -1.641195160535803e-19 5.1861171193422715" Properties=species:S:1:pos:R:3:initial_magmoms:R:1:castep_labels:S:1 n_minim_iter=18 pbc="T T T"
P        2.44643101       3.72349930       3.50150963       0.00000000 NULL
P        0.09231470       1.08091053       1.68460748       0.00000000 NULL
P       -0.09231471       4.20426700       1.68460748       0.00000000 NULL
P        2.63106041       1.56167824       3.50150963       0.00000000 NULL
P        2.38070002       1.10196131       1.16141270       0.00000000 NULL
P        0.15804569       3.74455008       4.02470440       0.00000000 NULL
P       -0.15804570       1.54062746       4.02470440       0.00000000 NULL
P        2.69679140       4.18321623       1.16141270       0.00000000 NULL
