4
Lattice="3.4929599999999987 5.4648224394352654e-17 -1.1257047487120915e-16 -0.3689827243888559 4.518840515386947 5.50046148983488e-16 -1.4294509231740613 -0.4102399832118452 5.38241900473302" Properties=species:S:1:pos:R:3:initial_magmoms:R:1:castep_labels:S:1 n_minim_iter=1 pbc="T T T"
P        3.02472776       1.71102836       0.11616121       0.00000000 NULL
P        1.84784552      -0.07780890       2.20626970       0.00000000 NULL
P        1.35001230       2.93965026       3.52975755       0.00000000 NULL
P        2.53301751       2.45075479       1.96288747       0.00000000 NULL
4
Lattice="3.4937584845329934 -0.0001083575316940344 -0.0011968978537202767 -0.3692072552746164 4.519852929727802 -6.578567273941532e-05 -1.4316093067843612 -0.4105154674375022 5.386308550114321" Properties=species:S:1:pos:R:3:initial_magmoms:R:1:castep_labels:S:1 n_minim_iter=2 pbc="T T T"
P        3.02532064       1.71126515       0.11497209       0.00000000 NULL
P        1.84756708      -0.07787122       2.20681936       0.00000000 NULL
P        1.34881159       2.94001979       3.53175970       0.00000000 NULL
P        2.53300951       2.45116254       1.96313676       0.00000000 NULL
4
Lattice="3.541272897456169 -0.006203484751291256 -0.073215377465305 -0.3821117561433602 4.578364789009425 -0.004132481477150664 -1.5613138238364406 -0.42718012733966076 5.6188416778480885" Properties=species:S:1:pos:R:3:initial_magmoms:R:1:castep_labels:S:1 n_minim_iter=3 pbc="T T T"
P        3.06091306       1.72507289       0.04324677       0.00000000 NULL
P        1.83077291      -0.08153310       2.23901204       0.00000000 NULL
P        1.27637858       2.96082595       3.65169521       0.00000000 NULL
P        2.53235721       2.47468602       1.97736120       0.00000000 NULL
4
Lattice="3.5396151829159845 0.0018435943355374915 -0.10938114815335458 -0.3715261396360486 4.532330018595836 -0.009282164300221472 -1.6173095820134133 -0.4370555663591952 5.654467792414823" Properties=species:S:1:pos:R:3:initial_magmoms:R:1:castep_labels:S:1 n_minim_iter=4 pbc="T T T"
P        3.06083375       1.71515027       0.00405289       0.00000000 NULL
P        1.81103439      -0.08177701       2.22040314       0.00000000 NULL
P        1.23714215       2.92495104       3.65563367       0.00000000 NULL
P        2.52252066       2.45515486       1.95568443       0.00000000 NULL
4
Lattice="3.5220940214026366 0.011972347633283024 -0.1712572231557829 -0.3565717093872445 4.452126296831239 -0.024246208212786637 -1.7066757760476554 -0.4596257779860151 5.663659507068584" Properties=species:S:1:pos:R:3:initial_magmoms:R:1:castep_labels:S:1 n_minim_iter=5 pbc="T T T"
P        3.04549965       1.69480952      -0.06662303       0.00000000 NULL
P        1.76994420      -0.08766512       2.16697786       0.00000000 NULL
P        1.16119686       2.85637529       3.62250540       0.00000000 NULL
P        2.49289755       2.41516750       1.89813995       0.00000000 NULL
4
Lattice="3.495056266213085 0.003690731366741875 -0.2427754050445184 -0.36442946857914377 4.416869364520357 -0.04196130009997619 -1.804843011615045 -0.4830556769742218 5.631059769248039" Properties=species:S:1:pos:R:3:initial_magmoms:R:1:castep_labels:S:1 n_minim_iter=6 pbc="T T T"
P        3.01161779       1.67456736      -0.14939171       0.00000000 NULL
P        1.71775043      -0.10499291       2.08987716       0.00000000 NULL
P        1.05587437       2.80694808       3.55195491       0.00000000 NULL
P        2.43985576       2.38154305       1.81685161       0.00000000 NULL
4
Lattice="3.4709897125124023 -0.011130859596421119 -0.303892668671675 -0.381061855779599 4.414694571054013 -0.04335513947635123 -1.8874309469567379 -0.486000764417391 5.593306871481228" Properties=species:S:1:pos:R:3:initial_magmoms:R:1:castep_labels:S:1 n_minim_iter=7 pbc="T T T"
P        2.97846707       1.66044190      -0.21473892       0.00000000 NULL
P        1.67204776      -0.11769135       2.02284810       0.00000000 NULL
P        0.96022799       2.79224011       3.49212642       0.00000000 NULL
P        2.38748362       2.36653246       1.75148957       0.00000000 NULL
4
Lattice="3.364324697448072 -0.09323047245510493 -0.6289668189528411 -0.47600640396451543 4.467602504108432 -0.01023158295373077 -2.3350548351105838 -0.45786677729579994 5.410016967117412" Properties=species:S:1:pos:R:3:initial_magmoms:R:1:castep_labels:S:1 n_minim_iter=8 pbc="T T T"
P        2.82552773       1.60675447      -0.54481743       0.00000000 NULL
P        1.44893564      -0.17077691       1.67176579       0.00000000 NULL
P        0.44730282       2.78963701       3.21930202       0.00000000 NULL
P        2.11668964       2.33676589       1.42929093       0.00000000 NULL
4
Lattice="3.6245139678122715 -0.045842910153762774 -0.5429819676423121 -0.4421865232281227 4.498227960789376 0.0992512543608712 -2.3146027164696923 -0.33926968711081446 5.393761730351254" Properties=species:S:1:pos:R:3:initial_magmoms:R:1:castep_labels:S:1 n_minim_iter=9 pbc="T T T"
P        3.07889965       1.65877848      -0.43493029       0.00000000 NULL
P        1.65052149      -0.09633076       1.71613175       0.00000000 NULL
P        0.69044756       2.93479566       3.37523966       0.00000000 NULL
P        2.35845606       2.44435542       1.56203917       0.00000000 NULL
4
Lattice="3.5254769470191762 -0.02044559142106225 -0.5585066903655904 -0.39886813921596037 4.40849278522769 0.04608293272407234 -2.3009784543648917 -0.4070427394095812 5.262826471658327" Properties=species:S:1:pos:R:3:initial_magmoms:R:1:castep_labels:S:1 n_minim_iter=10 pbc="T T T"
P        3.00241145       1.64873270      -0.47047949       0.00000000 NULL
P        1.59854002      -0.11120210       1.64363060       0.00000000 NULL
P        0.64678829       2.84168079       3.24259958       0.00000000 NULL
P        2.29866867       2.39595639       1.47206368       0.00000000 NULL
4
Lattice="3.547863547732318 -0.022975165434514624 -0.589434956569557 -0.4045054813153845 4.485010935936413 0.04159747808824902 -2.357501203682087 -0.4221640996503182 5.291010927701145" Properties=species:S:1:pos:R:3:initial_magmoms:R:1:castep_labels:S:1 n_minim_iter=11 pbc="T T T"
P        3.02044499       1.67296106      -0.50281117       0.00000000 NULL
P        1.59715030      -0.11614197       1.62623990       0.00000000 NULL
P        0.61299532       2.88439345       3.24278191       0.00000000 NULL
P        2.29764832       2.43272349       1.45355114       0.00000000 NULL
