8
Lattice="3.7940099999999988 -1.5914417589455133e-16 -3.820508351153034e-16 -1.3803930941692513 6.252781625898173 -4.639170310345102e-16 -1.3158299658637884 -3.000261580061552 7.091444507929356" Properties=species:S:1:pos:R:3:initial_magmoms:R:1:castep_labels:S:1 n_minim_iter=1 pbc="T T T"
P        1.15054521       2.36234020       5.03600776       0.00000000 NULL
P       -0.05275827       0.89017985       2.05543675       0.00000000 NULL
P        1.51153179       2.13316119       1.06064112       0.00000000 NULL
P       -0.41374485       1.11935886       6.03080339       0.00000000 NULL
P        0.99964455       0.40542975       4.58570812       0.00000000 NULL
P        0.09814239       2.84709030       2.50573639       0.00000000 NULL
P        0.33366469       4.01335423       0.87222853       0.00000000 NULL
P        0.76412225      -0.76083418       6.21921598       0.00000000 NULL
8
Lattice="3.7958497407157075 -6.666028832543825e-05 -0.002680681314784372 -1.3811723165764294 6.262891681178917 -0.0002767637955805445 -1.321425810484231 -3.0064979415625586 7.110592521700878" Properties=species:S:1:pos:R:3:initial_magmoms:R:1:castep_labels:S:1 n_minim_iter=2 pbc="T T T"
P        1.14759929       2.36539942       5.04733889       0.00000000 NULL
P       -0.05434767       0.89092766       2.06029619       0.00000000 NULL
P        1.51159811       2.13624378       1.06205545       0.00000000 NULL
P       -0.41834650       1.12008330       6.04557962       0.00000000 NULL
P        0.99699872       0.40500940       4.59586440       0.00000000 NULL
P        0.09625289       2.85131768       2.51177068       0.00000000 NULL
P        0.33303758       4.01995475       0.87348714       0.00000000 NULL
P        0.76021403      -0.76362768       6.23414793       0.00000000 NULL
8
Lattice="3.8454818923523106 -0.0016584075520392639 -0.07972452661078824 -1.4018535291751162 6.544076754159357 -0.00687560432980574 -1.48138426284133 -3.1798634501300223 7.655582518955105" Properties=species:S:1:pos:R:3:initial_magmoms:R:1:castep_labels:S:1 n_minim_iter=3 pbc="T T T"
P        1.06199272       2.45095876       5.37024402       0.00000000 NULL
P       -0.09974862       0.91159614       2.19873837       0.00000000 NULL
P        1.51213387       2.22197670       1.10270934       0.00000000 NULL
P       -0.54988977       1.14057820       6.46627304       0.00000000 NULL
P        0.92031439       0.39345129       4.88432793       0.00000000 NULL
P        0.04192971       2.96910361       2.68465446       0.00000000 NULL
P        0.31512025       4.20388685       0.91007223       0.00000000 NULL
P        0.64712385      -0.84133195       6.65891016       0.00000000 NULL
8
Lattice="3.8106753209248123 0.005126196477089127 -0.12319735027636333 -1.3780082050345455 6.583098711876102 0.033647114559539386 -1.5559336640655377 -3.174105267088013 7.881318069651153" Properties=species:S:1:pos:R:3:initial_magmoms:R:1:castep_labels:S:1 n_minim_iter=4 pbc="T T T"
P        0.99892060       2.49044308       5.52820352       0.00000000 NULL
P       -0.12218715       0.92367656       2.26356432       0.00000000 NULL
P        1.49117732       2.24126705       1.13444293       0.00000000 NULL
P       -0.61444387       1.17285259       6.65732490       0.00000000 NULL
P        0.86201513       0.41425733       5.00884319       0.00000000 NULL
P        0.01471833       2.99986231       2.78292465       0.00000000 NULL
P        0.30883502       4.23764903       0.95188527       0.00000000 NULL
P        0.56789844      -0.82352939       6.83988257       0.00000000 NULL
8
Lattice="3.732049001678201 0.02178853381972164 -0.1700377969066875 -1.3219405655479604 6.537814163708621 0.10432991995378259 -1.6293912805711461 -3.1002288960418904 8.087291887352505" Properties=species:S:1:pos:R:3:initial_magmoms:R:1:castep_labels:S:1 n_minim_iter=5 pbc="T T T"
P        0.92435497       2.52403233       5.69291489       0.00000000 NULL
P       -0.14363781       0.93534147       2.32866912       0.00000000 NULL
P        1.45724744       2.24233499       1.17577826       0.00000000 NULL
P       -0.67653029       1.21703881       6.84580575       0.00000000 NULL
P        0.78994138       0.45356773       5.12835066       0.00000000 NULL
P       -0.00922422       3.00580607       2.89323335       0.00000000 NULL
P        0.30938720       4.22279589       1.01066379       0.00000000 NULL
P        0.47132995      -0.76342209       7.01092022       0.00000000 NULL
8
Lattice="3.5360480474665055 0.06503770382251968 -0.26068727196407254 -1.1793510681103545 6.35779548518878 0.2858203994799051 -1.7650500206065356 -2.8679727651602223 8.46579164383086" Properties=species:S:1:pos:R:3:initial_magmoms:R:1:castep_labels:S:1 n_minim_iter=6 pbc="T T T"
P        0.77391171       2.59394055       6.03368057       0.00000000 NULL
P       -0.18226475       0.96091988       2.45724420       0.00000000 NULL
P        1.38083799       2.22752137       1.27349674       0.00000000 NULL
P       -0.78919103       1.32733905       7.21742804       0.00000000 NULL
P        0.64130324       0.55715406       5.36072073       0.00000000 NULL
P       -0.04965628       2.99770636       3.13020404       0.00000000 NULL
P        0.31931588       4.14148932       1.15175216       0.00000000 NULL
P        0.27233108      -0.58662889       7.33917261       0.00000000 NULL
8
Lattice="3.389219618089813 0.01735168201535936 -0.3080281801551227 -1.2045195128505357 6.389505669033978 0.5003679481985904 -1.764903378147305 -2.6345353775919285 8.667242139800083" Properties=species:S:1:pos:R:3:initial_magmoms:R:1:castep_labels:S:1 n_minim_iter=7 pbc="T T T"
P        0.63819738       2.74845643       6.31043310       0.00000000 NULL
P       -0.21840066       1.02386554       2.54914880       0.00000000 NULL
P        1.28934902       2.24087225       1.37706661       0.00000000 NULL
P       -0.86955229       1.53144972       7.48251530       0.00000000 NULL
P        0.54816736       0.67553568       5.52218962       0.00000000 NULL
P       -0.12837063       3.09678629       3.33739229       0.00000000 NULL
P        0.24366520       4.17733833       1.30833653       0.00000000 NULL
P        0.17613153      -0.40501636       7.55124538       0.00000000 NULL
8
Lattice="3.3233233892524625 -0.03824985112729449 -0.33046557648761005 -1.2721792042027662 6.227539197385311 0.5240261690349011 -1.7400184080950951 -2.5102559002285862 8.716393882735158" Properties=species:S:1:pos:R:3:initial_magmoms:R:1:castep_labels:S:1 n_minim_iter=8 pbc="T T T"
P        0.55405940       2.67360776       6.34724115       0.00000000 NULL
P       -0.24293362       1.00542569       2.56271333       0.00000000 NULL
P        1.23149059       2.15903436       1.38335224       0.00000000 NULL
P       -0.92036481       1.51999909       7.52660224       0.00000000 NULL
P        0.50127106       0.65994067       5.54939572       0.00000000 NULL
P       -0.19014528       3.01909277       3.36055876       0.00000000 NULL
P        0.17197196       4.05694854       1.32441942       0.00000000 NULL
P        0.13915382      -0.37791509       7.58553505       0.00000000 NULL
8
Lattice="3.3257651101166896 -0.06577315518867245 -0.35005556066305643 -1.3184278288869038 6.290217689596229 0.5415409906686453 -1.7557160639898135 -2.5141997603251585 8.81584392824612" Properties=species:S:1:pos:R:3:initial_magmoms:R:1:castep_labels:S:1 n_minim_iter=9 pbc="T T T"
P        0.51197510       2.69665120       6.41589613       0.00000000 NULL
P       -0.26035389       1.01359357       2.59143323       0.00000000 NULL
P        1.21497353       2.16744918       1.39288487       0.00000000 NULL
P       -0.96335231       1.54279559       7.61444449       0.00000000 NULL
P        0.47733407       0.66077628       5.60489464       0.00000000 NULL
P       -0.22571285       3.04946849       3.40243472       0.00000000 NULL
P        0.13706761       4.09113903       1.34186653       0.00000000 NULL
P        0.11455361      -0.38089426       7.66546283       0.00000000 NULL
8
Lattice="3.3125932933774838 -0.0880270685000473 -0.3646287108382681 -1.3503113967723939 6.280572470822924 0.5542056696066285 -1.7607886003006723 -2.489618651250662 8.847670987526216" Properties=species:S:1:pos:R:3:initial_magmoms:R:1:castep_labels:S:1 n_minim_iter=10 pbc="T T T"
P        0.47496113       2.69049656       6.43615971       0.00000000 NULL
P       -0.27346784       1.01243019       2.60108823       0.00000000 NULL
P        1.19584963       2.15445625       1.39365834       0.00000000 NULL
P       -0.99435634       1.54847050       7.64358961       0.00000000 NULL
P        0.45536657       0.65773725       5.62096944       0.00000000 NULL
P       -0.25387328       3.04518950       3.41627851       0.00000000 NULL
P        0.10780469       4.07853070       1.35024644       0.00000000 NULL
P        0.09368860      -0.37560395       7.68700150       0.00000000 NULL
8
Lattice="3.282997367916848 -0.14446610493803 -0.40591867251587027 -1.4325586652037923 6.262367002054489 0.5860927202620367 -1.783068561012987 -2.4323297906001513 8.937273339498669" Properties=species:S:1:pos:R:3:initial_magmoms:R:1:castep_labels:S:1 n_minim_iter=11 pbc="T T T"
P        0.37642545       2.67624213       6.48971540       0.00000000 NULL
P       -0.30905531       1.00932898       2.62773199       0.00000000 NULL
P        1.14767171       2.12372050       1.39381821       0.00000000 NULL
P       -1.08030157       1.56185060       7.72362918       0.00000000 NULL
P        0.39561325       0.64886869       5.66479027       0.00000000 NULL
P       -0.32824310       3.03670242       3.45265711       0.00000000 NULL
P        0.03275574       4.05002700       1.37116403       0.00000000 NULL
P        0.03461440      -0.36445589       7.74628336       0.00000000 NULL
8
Lattice="3.2592308388707947 -0.2030617649363388 -0.45638359338221957 -1.5204811307817034 6.244032711099589 0.620368180179391 -1.822813887821847 -2.3749318111987225 9.03637296753083" Properties=species:S:1:pos:R:3:initial_magmoms:R:1:castep_labels:S:1 n_minim_iter=12 pbc="T T T"
P        0.26591269       2.66088706       6.54324102       0.00000000 NULL
P       -0.34997687       1.00515208       2.65711653       0.00000000 NULL
P        1.09789042       2.09265624       1.39034558       0.00000000 NULL
P       -1.18195460       1.57338289       7.81001198       0.00000000 NULL
P        0.32641549       0.63826876       5.71076670       0.00000000 NULL
P       -0.41047967       3.02777037       3.48959086       0.00000000 NULL
P       -0.04673393       4.01968761       1.39286963       0.00000000 NULL
P       -0.03733025      -0.35364847       7.80748793       0.00000000 NULL
8
Lattice="3.2474239893745227 -0.26158180451372387 -0.51841320549502 -1.6126303171854708 6.2279570263959325 0.6615591326010731 -1.8883825920079116 -2.3155859537762122 9.150664897657661" Properties=species:S:1:pos:R:3:initial_magmoms:R:1:castep_labels:S:1 n_minim_iter=13 pbc="T T T"
P        0.14335973       2.64899121       6.60250769       0.00000000 NULL
P       -0.39694865       1.00179806       2.69130314       0.00000000 NULL
P        1.04890273       2.06337308       1.38549112       0.00000000 NULL
P       -1.30249165       1.58741619       7.90831971       0.00000000 NULL
P        0.24669310       0.62939814       5.76271273       0.00000000 NULL
P       -0.50028202       3.02139113       3.53109809       0.00000000 NULL
P       -0.12838199       3.99066626       1.41881470       0.00000000 NULL
P       -0.12520693      -0.33987699       7.87499612       0.00000000 NULL
8
Lattice="3.2369991703804 -0.3214518349563384 -0.5846712410502493 -1.70750720948309 6.195232394099614 0.7013749024502716 -1.9612664644776872 -2.250852005373232 9.253403069587726" Properties=species:S:1:pos:R:3:initial_magmoms:R:1:castep_labels:S:1 n_minim_iter=14 pbc="T T T"
P        0.01422356       2.62754586       6.64881878       0.00000000 NULL
P       -0.44599807       0.99538269       2.72128795       0.00000000 NULL
P        0.99709879       2.02696906       1.37715596       0.00000000 NULL
P       -1.42887329       1.59595949       7.99295077       0.00000000 NULL
P        0.16183790       0.61670825       5.80527490       0.00000000 NULL
P       -0.59361240       3.00622030       3.56483183       0.00000000 NULL
P       -0.21255525       3.94986101       1.44253595       0.00000000 NULL
P       -0.21921925      -0.32693245       7.92757078       0.00000000 NULL
8
Lattice="3.2466181406883 -0.4122258441745721 -0.704496494765025 -1.8606085500528098 6.196415103881194 0.7760106193322988 -2.116786690943395 -2.1688880217189257 9.484749258197846" Properties=species:S:1:pos:R:3:initial_magmoms:R:1:castep_labels:S:1 n_minim_iter=15 pbc="T T T"
P       -0.20041724       2.62217427       6.76749563       0.00000000 NULL
P       -0.53035986       0.99312697       2.78876775       0.00000000 NULL
P        0.92185270       1.98998466       1.37221295       0.00000000 NULL
P       -1.65262980       1.62531658       8.18405043       0.00000000 NULL
P        0.01722841       0.60372289       5.91125545       0.00000000 NULL
P       -0.74800552       3.01157835       3.64500793       0.00000000 NULL
P       -0.34362420       3.92208768       1.49380346       0.00000000 NULL
P       -0.38715290      -0.30678645       8.06245992       0.00000000 NULL
8
Lattice="3.19998478833491 -0.4372999778645519 -0.7369746781110182 -1.884965556195507 6.102309738197649 0.8146760469659012 -2.141490556383347 -2.0802101957431822 9.429391058591536" Properties=species:S:1:pos:R:3:initial_magmoms:R:1:castep_labels:S:1 n_minim_iter=16 pbc="T T T"
P       -0.27435743       2.59977942       6.72800791       0.00000000 NULL
P       -0.55211389       0.98502014       2.77908452       0.00000000 NULL
P        0.87957332       1.95317683       1.36486940       0.00000000 NULL
P       -1.70604465       1.63162273       8.14222303       0.00000000 NULL
P       -0.03662467       0.60674571       5.87898849       0.00000000 NULL
P       -0.78984666       2.97805385       3.62810394       0.00000000 NULL
P       -0.38579676       3.85288287       1.51236669       0.00000000 NULL
P       -0.44067457      -0.26808330       7.99472574       0.00000000 NULL
8
Lattice="3.2261740062189874 -0.44874695954482385 -0.760136423500869 -1.9133594961775449 6.161082032046903 0.8233521860607228 -2.1848132810125174 -2.102159897061228 9.575932450460813" Properties=species:S:1:pos:R:3:initial_magmoms:R:1:castep_labels:S:1 n_minim_iter=17 pbc="T T T"
P       -0.30479566       2.62078849       6.81924982       0.00000000 NULL
P       -0.56720311       0.98938668       2.81989839       0.00000000 NULL
P        0.87781511       1.96772888       1.37705640       0.00000000 NULL
P       -1.74981388       1.64244630       8.26209181       0.00000000 NULL
P       -0.05722781       0.60395529       5.96002522       0.00000000 NULL
P       -0.81477096       3.00621989       3.67912299       0.00000000 NULL
P       -0.40271412       3.88713383       1.53117079       0.00000000 NULL
P       -0.46928465      -0.27695866       8.10797742       0.00000000 NULL
