8
Lattice="4.515489999999997 1.0581346982252823e-31 -1.7806060993648114e-31 2.2577449999999986 6.320466685196624 2.5256860765841147e-14 2.2577449999999986 1.1560360543360721 6.213845810748404" Properties=species:S:1:pos:R:3:initial_magmoms:R:1:castep_labels:S:1 n_minim_iter=1 pbc="T T T"
P        4.61790289       1.92304197       1.21725884       0.00000000 NULL
P        4.41307711       5.92804673       4.54588493       0.00000000 NULL
P        6.87564789       5.92804673       4.54588493       0.00000000 NULL
P        2.15533211       1.92304197       1.21725884       0.00000000 NULL
P        4.62739220       1.09341336       3.05805474       0.00000000 NULL
P        4.40358780       4.27004554       5.69820659       0.00000000 NULL
P        6.88513720       4.27004554       5.69820659       0.00000000 NULL
P        2.14584280       1.09341336       3.05805474       0.00000000 NULL
8
Lattice="4.526884356799338 -2.228229242002508e-18 1.391867241045082e-18 2.263442178399669 6.333807613734076 -0.015882501926503683 2.263442178399669 1.1428615803897453 6.229866655854864" Properties=species:S:1:pos:R:3:initial_magmoms:R:1:castep_labels:S:1 n_minim_iter=2 pbc="T T T"
P        4.62914161       1.92402256       1.21596305       0.00000000 NULL
P        4.42462711       5.92930776       4.54482222       0.00000000 NULL
P        6.89258378       5.92930776       4.54482222       0.00000000 NULL
P        2.16118493       1.92402256       1.21596305       0.00000000 NULL
P        4.63863540       1.08811616       3.06484172       0.00000000 NULL
P        4.41513331       4.26450838       5.70479414       0.00000000 NULL
P        6.90207758       4.26450838       5.70479414       0.00000000 NULL
P        2.15169113       1.08811616       3.06484172       0.00000000 NULL
8
Lattice="4.782282522904846 -4.9144552369019214e-17 3.847372370447102e-17 2.391141261452423 6.633705473061171 -0.3749933256651699 2.391141261452423 0.8446610449614079 6.590388153723563" Properties=species:S:1:pos:R:3:initial_magmoms:R:1:castep_labels:S:1 n_minim_iter=3 pbc="T T T"
P        4.88086043       1.94589819       1.18627367       0.00000000 NULL
P        4.68370462       5.95619250       4.51929599       0.00000000 NULL
P        7.27200169       5.95619250       4.51929599       0.00000000 NULL
P        2.29256335       1.94589819       1.18627367       0.00000000 NULL
P        4.89044264       0.96773439       3.21744832       0.00000000 NULL
P        4.67412240       4.13819170       5.85246814       0.00000000 NULL
P        7.28158390       4.13819170       5.85246814       0.00000000 NULL
P        2.28298114       0.96773439       3.21744832       0.00000000 NULL
8
Lattice="4.853912479171509 -6.30271773290113e-17 3.380753682696239e-17 2.4269562395857545 6.714266136156223 -0.5033986459377567 2.4269562395857545 0.7331566473502056 6.6930756214398475" Properties=species:S:1:pos:R:3:initial_magmoms:R:1:castep_labels:S:1 n_minim_iter=4 pbc="T T T"
P        4.95038449       1.94567021       1.17032794       0.00000000 NULL
P        4.75744047       5.94096720       4.49088574       0.00000000 NULL
P        7.37734073       5.94096720       4.49088574       0.00000000 NULL
P        2.33048423       1.94567021       1.17032794       0.00000000 NULL
P        4.95967818       0.92005763       3.25934219       0.00000000 NULL
P        4.74814678       4.07478106       5.88128532       0.00000000 NULL
P        7.38663442       4.07478106       5.88128532       0.00000000 NULL
P        2.32119054       0.92005763       3.25934219       0.00000000 NULL
8
Lattice="4.864528771064925 -6.34181644999927e-17 2.5101668193177235e-17 2.4322643855324624 6.711585324086588 -0.5461876696354496 2.4322643855324624 0.690599107780016 6.69826629847528" Properties=species:S:1:pos:R:3:initial_magmoms:R:1:castep_labels:S:1 n_minim_iter=5 pbc="T T T"
P        4.95932231       1.93648020       1.15900977       0.00000000 NULL
P        4.76973523       5.90853698       4.46025224       0.00000000 NULL
P        7.39158669       5.90853698       4.46025224       0.00000000 NULL
P        2.33747085       1.93648020       1.15900977       0.00000000 NULL
P        4.96822121       0.89935075       3.25946625       0.00000000 NULL
P        4.76083633       4.03320811       5.86406723       0.00000000 NULL
P        7.40048560       4.03320811       5.86406723       0.00000000 NULL
P        2.32857194       0.89935075       3.25946625       0.00000000 NULL
8
Lattice="4.861405115637696 -6.614735253700116e-17 2.326027448711094e-17 2.430702557818848 6.6867432868607795 -0.5664442856103018 2.430702557818848 0.6661405057952073 6.67754833300495" Properties=species:S:1:pos:R:3:initial_magmoms:R:1:castep_labels:S:1 n_minim_iter=6 pbc="T T T"
P        4.95466990       1.92486075       1.14885926       0.00000000 NULL
P        4.76814033       5.87134086       4.42884454       0.00000000 NULL
P        7.38537246       5.87134086       4.42884454       0.00000000 NULL
P        2.33743777       1.92486075       1.14885926       0.00000000 NULL
P        4.96318893       0.88570317       3.24848561       0.00000000 NULL
P        4.75962130       3.99719906       5.83450161       0.00000000 NULL
P        7.39389149       3.99719906       5.83450161       0.00000000 NULL
P        2.32891874       0.88570317       3.24848561       0.00000000 NULL
8
Lattice="4.8476701798703274 -5.2671988825137264e-17 3.3596162598345626e-17 2.4238350899351637 6.609326083835562 -0.6234099992309816 2.4238350899351637 0.5959758706584011 6.611856325662504" Properties=species:S:1:pos:R:3:initial_magmoms:R:1:castep_labels:S:1 n_minim_iter=7 pbc="T T T"
P        4.93651654       1.88992202       1.11883201       0.00000000 NULL
P        4.75882382       5.75967016       4.33504407       0.00000000 NULL
P        7.36035163       5.75967016       4.33504407       0.00000000 NULL
P        2.33498873       1.88992202       1.11883201       0.00000000 NULL
P        4.94402096       0.84601595       3.21400673       0.00000000 NULL
P        4.75131940       3.89077341       5.74455531       0.00000000 NULL
P        7.36785605       3.89077341       5.74455531       0.00000000 NULL
P        2.32748431       0.84601595       3.21400673       0.00000000 NULL
8
Lattice="4.836440005442252 -6.64171919967142e-17 2.67111145793765e-17 2.418220002721126 6.5249319691623215 -0.6837964803983039 2.418220002721126 0.5211720712062518 6.539930771881014" Properties=species:S:1:pos:R:3:initial_magmoms:R:1:castep_labels:S:1 n_minim_iter=8 pbc="T T T"
P        4.92066120       1.85238379       1.08654315       0.00000000 NULL
P        4.75221881       5.63908229       4.23373128       0.00000000 NULL
P        7.33888120       5.63908229       4.23373128       0.00000000 NULL
P        2.33399880       1.85238379       1.08654315       0.00000000 NULL
P        4.92734040       0.80339322       3.17638879       0.00000000 NULL
P        4.74553961       3.77635471       5.64726655       0.00000000 NULL
P        7.34556040       3.77635471       5.64726655       0.00000000 NULL
P        2.32731961       0.80339322       3.17638879       0.00000000 NULL
8
Lattice="4.816105982777148 -7.009422281212686e-17 2.515711680828193e-17 2.408052991388574 6.4410882349279985 -0.749891755349937 2.408052991388574 0.44085644700361826 6.469590472974704" Properties=species:S:1:pos:R:3:initial_magmoms:R:1:castep_labels:S:1 n_minim_iter=9 pbc="T T T"
P        4.89540140       1.81381682       1.05263824       0.00000000 NULL
P        4.73681056       5.51530993       4.12901075       0.00000000 NULL
P        7.30345439       5.51530993       4.12901075       0.00000000 NULL
P        2.32875757       1.81381682       1.05263824       0.00000000 NULL
P        4.90142707       0.75781906       3.13915460       0.00000000 NULL
P        4.73078489       3.65713711       5.54882606       0.00000000 NULL
P        7.30948006       3.65713711       5.54882606       0.00000000 NULL
P        2.32273190       0.75781906       3.13915460       0.00000000 NULL
8
Lattice="4.814441342504514 -6.069056231266544e-17 3.926854697950591e-17 2.407220671252257 6.319162927797569 -0.8263993605026199 2.407220671252257 0.3433388832783392 6.363715457366041" Properties=species:S:1:pos:R:3:initial_magmoms:R:1:castep_labels:S:1 n_minim_iter=10 pbc="T T T"
P        4.88873954       1.76185179       1.00913251       0.00000000 NULL
P        4.74014314       5.34814348       3.98975919       0.00000000 NULL
P        7.29596021       5.34814348       3.98975919       0.00000000 NULL
P        2.33292247       1.76185179       1.00913251       0.00000000 NULL
P        4.89427349       0.70026521       3.08328023       0.00000000 NULL
P        4.73460919       3.50315286       5.41280678       0.00000000 NULL
P        7.30149416       3.50315286       5.41280678       0.00000000 NULL
P        2.32738852       0.70026521       3.08328023       0.00000000 NULL
8
Lattice="4.767141756443821 -5.663905624735741e-17 3.9980502222582925e-17 2.3835708782219105 6.19865687047574 -0.9480066195905885 2.3835708782219105 0.2017420441451781 6.267484638697395" Properties=species:S:1:pos:R:3:initial_magmoms:R:1:castep_labels:S:1 n_minim_iter=11 pbc="T T T"
P        4.83581466       1.70206919       0.95572364       0.00000000 NULL
P        4.69846885       5.14948294       3.82092657       0.00000000 NULL
P        7.21938554       5.14948294       3.82092657       0.00000000 NULL
P        2.31489797       1.70206919       0.95572364       0.00000000 NULL
P        4.84093518       0.62075472       3.02814171       0.00000000 NULL
P        4.69334833       3.30980110       5.26305289       0.00000000 NULL
P        7.22450606       3.30980110       5.26305289       0.00000000 NULL
P        2.30977745       0.62075472       3.02814171       0.00000000 NULL
8
Lattice="4.794046097813536 -3.8085028568397275e-17 5.712788963835338e-17 2.397023048906768 6.136497510175174 -0.971142938342815 2.397023048906768 0.16762684510748657 6.210605569497917" Properties=species:S:1:pos:R:3:initial_magmoms:R:1:castep_labels:S:1 n_minim_iter=12 pbc="T T T"
P        4.86086142       1.67894536       0.93787702       0.00000000 NULL
P        4.72723077       5.07498338       3.76038072       0.00000000 NULL
P        7.25788447       5.07498338       3.76038072       0.00000000 NULL
P        2.33020772       1.67894536       0.93787702       0.00000000 NULL
P        4.86584487       0.59859559       2.99875067       0.00000000 NULL
P        4.72224732       3.24647476       5.19944710       0.00000000 NULL
P        7.26286792       3.24647476       5.19944710       0.00000000 NULL
P        2.32522427       0.59859559       2.99875067       0.00000000 NULL
8
Lattice="4.784505553467663 -3.182835657643891e-17 6.223549566513849e-17 2.3922527767338315 6.107504940690541 -0.9965837614453897 2.3922527767338315 0.13731234188595048 6.186755297803673" Properties=species:S:1:pos:R:3:initial_magmoms:R:1:castep_labels:S:1 n_minim_iter=13 pbc="T T T"
P        4.85004575       1.66536587       0.92605580       0.00000000 NULL
P        4.71896536       5.02978185       3.72227790       0.00000000 NULL
P        7.24229852       5.02978185       3.72227790       0.00000000 NULL
P        2.32671258       1.66536587       0.92605580       0.00000000 NULL
P        4.85493690       0.58107852       2.98517965       0.00000000 NULL
P        4.71407420       3.20371371       5.16489538       0.00000000 NULL
P        7.24718968       3.20371371       5.16489538       0.00000000 NULL
P        2.32182142       0.58107852       2.98517965       0.00000000 NULL
8
Lattice="4.763174640254293 -5.116735094924112e-17 4.755995859714713e-17 2.3815873201271467 5.9712513601033335 -1.1001202053044508 2.3815873201271467 0.010601200207067764 6.071737386136624" Properties=species:S:1:pos:R:3:initial_magmoms:R:1:castep_labels:S:1 n_minim_iter=14 pbc="T T T"
P        4.82323965       1.60457434       0.87433568       0.00000000 NULL
P        4.70310963       4.82878376       3.55402978       0.00000000 NULL
P        7.20482697       4.82878376       3.55402978       0.00000000 NULL
P        2.32152231       1.60457434       0.87433568       0.00000000 NULL
P        4.82772399       0.50634257       2.92099331       0.00000000 NULL
P        4.69862529       3.01752203       5.00807634       0.00000000 NULL
P        7.20931131       3.01752203       5.00807634       0.00000000 NULL
P        2.31703797       0.50634257       2.92099331       0.00000000 NULL
8
Lattice="4.75656223172627 -3.092324711953419e-17 6.756110941973367e-17 2.378281115863135 5.819601915083992 -1.2141935217598838 2.378281115863135 -0.129285024920575 5.943510556957415" Properties=species:S:1:pos:R:3:initial_magmoms:R:1:castep_labels:S:1 n_minim_iter=15 pbc="T T T"
P        4.81112971       1.53757194       0.81737674       0.00000000 NULL
P        4.70199476       4.60550116       3.36718376       0.00000000 NULL
P        7.18941082       4.60550116       3.36718376       0.00000000 NULL
P        2.32371364       1.53757194       0.81737674       0.00000000 NULL
P        4.81518541       0.42343321       2.84933040       0.00000000 NULL
P        4.69793906       2.81160480       4.83417955       0.00000000 NULL
P        7.19346652       2.81160480       4.83417955       0.00000000 NULL
P        2.31965794       0.42343321       2.84933040       0.00000000 NULL
8
Lattice="4.7191320142770055 -1.4394465618917263e-19 9.197925680192914e-17 2.3595660071385027 5.626212833202998 -1.3825673768551927 2.3595660071385027 -0.33019011445565527 5.784179966456622" Properties=species:S:1:pos:R:3:initial_magmoms:R:1:castep_labels:S:1 n_minim_iter=16 pbc="T T T"
P        4.76817989       1.44891518       0.74042914       0.00000000 NULL
P        4.67008413       4.30307219       3.11256652       0.00000000 NULL
P        7.12774590       4.30307219       3.11256652       0.00000000 NULL
P        2.31051812       1.44891518       0.74042914       0.00000000 NULL
P        4.77171360       0.30701592       2.75841101       0.00000000 NULL
P        4.66655043       2.52798943       4.60429905       0.00000000 NULL
P        7.13127961       2.52798943       4.60429905       0.00000000 NULL
P        2.30698442       0.30701592       2.75841101       0.00000000 NULL
8
Lattice="4.814624162125663 1.7527722494833545e-16 2.0739838473367215e-16 2.4073120810628317 5.411644707594281 -1.6260231855065435 2.4073120810628317 -0.6087843122748889 5.617760363540444" Properties=species:S:1:pos:R:3:initial_magmoms:R:1:castep_labels:S:1 n_minim_iter=17 pbc="T T T"
P        4.85925746       1.33931336       0.64191392       0.00000000 NULL
P        4.76999087       3.92680979       2.79242525       0.00000000 NULL
P        7.26656954       3.92680979       2.79242525       0.00000000 NULL
P        2.36267878       1.33931336       0.64191392       0.00000000 NULL
P        4.86225923       0.15061246       2.65776717       0.00000000 NULL
P        4.76698909       2.16237993       4.32978058       0.00000000 NULL
P        7.26957131       2.16237993       4.32978058       0.00000000 NULL
P        2.35967701       0.15061246       2.65776717       0.00000000 NULL
8
Lattice="4.819206011518959 2.2439090268557654e-16 6.228147829309868e-17 2.4096030057594797 5.271123560294425 -1.9846645322277108 2.4096030057594797 -0.987077508275717 5.545206478214301" Properties=species:S:1:pos:R:3:initial_magmoms:R:1:castep_labels:S:1 n_minim_iter=18 pbc="T T T"
P        4.86160822       1.22776426       0.52963181       0.00000000 NULL
P        4.77680380       3.53878618       2.45036058       0.00000000 NULL
P        7.27121123       3.53878618       2.45036058       0.00000000 NULL
P        2.36720080       1.22776426       0.52963181       0.00000000 NULL
P        4.86403961      -0.04808337       2.59361209       0.00000000 NULL
P        4.77437241       1.74298060       4.08219515       0.00000000 NULL
P        7.27364261       1.74298060       4.08219515       0.00000000 NULL
P        2.36476941      -0.04808337       2.59361209       0.00000000 NULL
8
Lattice="4.9718927289619 2.414296967701716e-16 2.5513106221750628e-17 2.48594636448095 5.202512713156731 -2.0685448881213633 2.48594636448095 -1.0820920445424942 5.493095055783061" Properties=species:S:1:pos:R:3:initial_magmoms:R:1:castep_labels:S:1 n_minim_iter=19 pbc="T T T"
P        5.01517197       1.19066463       0.49652861       0.00000000 NULL
P        4.92861349       3.41449123       2.34478790       0.00000000 NULL
P        7.50111833       3.41449123       2.34478790       0.00000000 NULL
P        2.44266712       1.19066463       0.49652861       0.00000000 NULL
P        5.01749665      -0.10113762       2.56082746       0.00000000 NULL
P        4.92628881       1.62129061       3.99236622       0.00000000 NULL
P        7.50344301       1.62129061       3.99236622       0.00000000 NULL
P        2.44034245      -0.10113762       2.56082746       0.00000000 NULL
8
Lattice="5.0253321788499905 2.6890534790440966e-16 -4.155576317716057e-17 2.5126660894249953 5.175768757348029 -2.18989988262297 2.5126660894249953 -1.2062914494988093 5.488998511961737" Properties=species:S:1:pos:R:3:initial_magmoms:R:1:castep_labels:S:1 n_minim_iter=20 pbc="T T T"
P        5.06926886       1.15906060       0.46266459       0.00000000 NULL
P        4.98139550       3.30262112       2.24421340       0.00000000 NULL
P        7.58193495       3.30262112       2.24421340       0.00000000 NULL
P        2.46872941       1.15906060       0.46266459       0.00000000 NULL
P        5.07154183      -0.16551987       2.54828416       0.00000000 NULL
P        4.97912252       1.49445470       3.92791665       0.00000000 NULL
P        7.58420792       1.49445470       3.92791665       0.00000000 NULL
P        2.46645643      -0.16551987       2.54828416       0.00000000 NULL
8
Lattice="5.057464729712712 2.879632477924989e-16 -8.561934430114674e-17 2.528732364856356 5.212031262110468 -2.2028193425477807 2.528732364856356 -1.2123604268252535 5.527012314857604" Properties=species:S:1:pos:R:3:initial_magmoms:R:1:castep_labels:S:1 n_minim_iter=21 pbc="T T T"
P        5.10204255       1.16723104       0.46643261       0.00000000 NULL
P        5.01288691       3.32761579       2.26196432       0.00000000 NULL
P        7.63077492       3.32761579       2.26196432       0.00000000 NULL
P        2.48415454       1.16723104       0.46643261       0.00000000 NULL
P        5.10442517      -0.16628926       2.56516147       0.00000000 NULL
P        5.01050429       1.50819635       3.95685431       0.00000000 NULL
P        7.63315754       1.50819635       3.95685431       0.00000000 NULL
P        2.48177192      -0.16628926       2.56516147       0.00000000 NULL
