2
Lattice="2.00189 -7.991780619984314e-16 -4.2132744889373297e-16 -0.7595409804287647 4.169208630897392 -1.308308602755617e-15 -0.2615725456882919 -2.115469173914639 5.113866099778041" Properties=species:S:1:pos:R:3:initial_magmoms:R:1:castep_labels:S:1 n_minim_iter=1 pbc="T T T"
P        1.43866126      -0.59527115       1.71594243       0.00000000 NULL
P       -0.06210249       2.02138668       2.83328433       0.00000000 NULL
2
Lattice="2.005641926299452 -0.00015524554757672675 2.2313921892537967e-05 -0.7612878260880371 4.1699442626583405 -0.001230608020835784 -0.26184172797821703 -2.117291318052877 5.115077292301837" Properties=species:S:1:pos:R:3:initial_magmoms:R:1:castep_labels:S:1 n_minim_iter=2 pbc="T T T"
P        1.44141103      -0.59570711       1.71618088       0.00000000 NULL
P       -0.06233221       2.02061383       2.83317158       0.00000000 NULL
2
Lattice="2.2872963986645996 -0.012461707653387182 0.0020688948025426226 -0.8937807813002266 4.222638432727078 -0.08922055043974489 -0.28041077799107655 -2.2470255575309026 5.201969308865171" Properties=species:S:1:pos:R:3:initial_magmoms:R:1:castep_labels:S:1 n_minim_iter=3 pbc="T T T"
P        1.64804503      -0.62739914       1.73334072       0.00000000 NULL
P       -0.07940841       1.96510810       2.82575644       0.00000000 NULL
2
Lattice="2.5021997776158367 -0.06338667127466047 0.02311199334747614 -1.0813758644486684 4.206452303387912 -0.18524612937176144 -0.20092141788764198 -2.3303448576521024 5.270324910902821" Properties=species:S:1:pos:R:3:initial_magmoms:R:1:castep_labels:S:1 n_minim_iter=4 pbc="T T T"
P        1.82497644      -0.67453363       1.75965358       0.00000000 NULL
P       -0.09702434       1.86901291       2.80731208       0.00000000 NULL
2
Lattice="2.546498972162213 -0.12831103826904494 0.045714877404983006 -1.2333973465912897 4.102182742990752 -0.23911149080128988 -0.08036226305795643 -2.312007310519816 5.285481976328236" Properties=species:S:1:pos:R:3:initial_magmoms:R:1:castep_labels:S:1 n_minim_iter=5 pbc="T T T"
P        1.88425623      -0.70973424       1.77520894       0.00000000 NULL
P       -0.12072952       1.76605964       2.78747547       0.00000000 NULL
2
Lattice="2.536632428643338 -0.1756739847953854 0.05947224613488363 -1.3282936502366376 4.028158651161461 -0.2896539185859432 0.006120516634032263 -2.314732537694569 5.325035647552441" Properties=species:S:1:pos:R:3:initial_magmoms:R:1:castep_labels:S:1 n_minim_iter=6 pbc="T T T"
P        1.89586377      -0.73800629       1.78907813       0.00000000 NULL
P       -0.14159908       1.68084227       2.78389100       0.00000000 NULL
2
Lattice="2.528983404868323 -0.20084038518516953 0.06675138459063554 -1.3778039763266376 3.9982860504962083 -0.32155620457476775 0.05230889773804793 -2.327185007039844 5.359732595632901" Properties=species:S:1:pos:R:3:initial_magmoms:R:1:castep_labels:S:1 n_minim_iter=7 pbc="T T T"
P        1.89997232      -0.75535602       1.79875423       0.00000000 NULL
P       -0.15235388       1.63560590       2.78781112       0.00000000 NULL
2
Lattice="2.449940143011932 -0.47004524001693815 0.16272088056800754 -1.9084698009410757 3.749831331576189 -0.6880034880121566 0.5922712688870692 -2.5189319193390873 5.810023380009842" Properties=species:S:1:pos:R:3:initial_magmoms:R:1:castep_labels:S:1 n_minim_iter=8 pbc="T T T"
P        1.94392046      -0.95092905       1.91906646       0.00000000 NULL
P       -0.22434448       1.16602416       2.88335554       0.00000000 NULL
2
Lattice="2.5749689748794538 -0.4761603630593246 0.1613261141394926 -1.9686428101003384 3.96506441955694 -0.3841171814651438 0.5788337651775489 -2.2540739358191835 5.7600804134681" Properties=species:S:1:pos:R:3:initial_magmoms:R:1:castep_labels:S:1 n_minim_iter=9 pbc="T T T"
P        2.05215403      -0.90666009       1.87903004       0.00000000 NULL
P       -0.25413041       1.52138680       3.11853722       0.00000000 NULL
2
Lattice="2.4622234992975778 -0.4512692922814734 0.14784837914331844 -1.8740267841540263 3.7600299299681867 -0.38654770335935557 0.5328329839297238 -2.1673365289032414 5.641311825775833" Properties=species:S:1:pos:R:3:initial_magmoms:R:1:castep_labels:S:1 n_minim_iter=10 pbc="T T T"
P        1.95732171      -0.86491647       1.84183758       0.00000000 NULL
P       -0.24972088       1.42162373       3.03325465       0.00000000 NULL
2
Lattice="2.500173365965365 -0.4587916145431722 0.14706669610187065 -1.9040916777465111 3.7390620859689916 -0.4243805639720642 0.5338266325425967 -2.2010351275019224 5.666233516729851" Properties=species:S:1:pos:R:3:initial_magmoms:R:1:castep_labels:S:1 n_minim_iter=11 pbc="T T T"
P        1.98465896      -0.87708103       1.84072208       0.00000000 NULL
P       -0.25809782       1.37886233       3.02565844       0.00000000 NULL
