18
Lattice="5.648829999999999 8.96437683317419e-17 -1.227214674090221e-16 2.0099667084618615 8.070410447708039 1.9222029500243385e-15 1.3224244960015068 3.3799937659056303 8.853808067403216" Properties=species:S:1:pos:R:3:initial_magmoms:R:1:castep_labels:S:1 n_minim_iter=1 pbc="T T T"
P        6.96375801       8.57803076       6.08191362       0.00000000 NULL
P        2.01746319       2.87237345       2.77189445       0.00000000 NULL
P        4.18584767       5.91984427       5.56759945       0.00000000 NULL
P        4.79537353       5.53055994       3.28620862       0.00000000 NULL
P        3.92828960       7.56538582       6.68928396       0.00000000 NULL
P        5.05293160       3.88501839       2.16452411       0.00000000 NULL
P        5.36245166       9.67681209       5.42155765       0.00000000 NULL
P        3.61876954       1.77359212       3.43225042       0.00000000 NULL
P        3.43211474       9.45071082       7.23093604       0.00000000 NULL
P        5.54910646       1.99969339       1.62287203       0.00000000 NULL
P        6.15863696       6.61258343       7.84115820       0.00000000 NULL
P        2.82258424       4.83782078       1.01264987       0.00000000 NULL
P        2.36459066       5.74686490       6.74892056       0.00000000 NULL
P        6.61663054       5.70353931       2.10488751       0.00000000 NULL
P        1.82611510       0.94927969       2.00375843       0.00000000 NULL
P        7.15510610      10.50112452       6.85004964       0.00000000 NULL
P        4.95096341       6.87267360       1.68825298       0.00000000 NULL
P        4.03025779       4.57773061       7.16555509       0.00000000 NULL
18
Lattice="5.656517843551214 -0.008259762606241068 0.000884087633047208 2.0009015808451385 8.086794220856946 0.007882377001421512 1.3206677054332603 3.3944551428929866 8.869434296201991" Properties=species:S:1:pos:R:3:initial_magmoms:R:1:castep_labels:S:1 n_minim_iter=2 pbc="T T T"
P        6.96165430       8.59379723       6.09947232       0.00000000 NULL
P        2.01643283       2.87919237       2.77872844       0.00000000 NULL
P        4.18387540       5.93291208       5.58114773       0.00000000 NULL
P        4.79421173       5.54007752       3.29705303       0.00000000 NULL
P        3.92371857       7.58393496       6.70640871       0.00000000 NULL
P        5.05436856       3.88905465       2.17179205       0.00000000 NULL
P        5.35620857       9.69732252       5.43917025       0.00000000 NULL
P        3.62187856       1.77566708       3.43903051       0.00000000 NULL
P        3.42418702       9.47536983       7.25049337       0.00000000 NULL
P        5.55390011       1.99761977       1.62770739       0.00000000 NULL
P        6.15857246       6.62686073       7.85913153       0.00000000 NULL
P        2.81951467       4.84612887       1.01906924       0.00000000 NULL
P        2.36023195       5.76358538       6.76399786       0.00000000 NULL
P        6.61785518       5.70940422       2.11420290       0.00000000 NULL
P        1.82755894       0.95066230       2.00767885       0.00000000 NULL
P        7.15052819      10.52232730       6.87052191       0.00000000 NULL
P        4.94775660       6.88355972       1.69758288       0.00000000 NULL
P        4.03033052       4.58942988       7.18061788       0.00000000 NULL
18
Lattice="5.788420510079426 -0.15838993563096498 0.014634093866216866 1.833346149292776 8.370677183748631 0.15122777773324153 1.2832674268837152 3.6524679455114017 9.147206540626575" Properties=species:S:1:pos:R:3:initial_magmoms:R:1:castep_labels:S:1 n_minim_iter=3 pbc="T T T"
P        6.91134618       8.86626173       6.41247219       0.00000000 NULL
P        1.99368791       2.99849347       2.90059622       0.00000000 NULL
P        4.14000114       6.16070166       5.82254702       0.00000000 NULL
P        4.76503294       5.70405353       3.49052139       0.00000000 NULL
P        3.83249611       7.90871011       7.01225352       0.00000000 NULL
P        5.07253797       3.95604508       2.30081489       0.00000000 NULL
P        5.23307850      10.05424027       5.75453449       0.00000000 NULL
P        3.67195558       1.81051493       3.55853392       0.00000000 NULL
P        3.27224081       9.90807375       7.60070669       0.00000000 NULL
P        5.63279328       1.95668144       1.71236172       0.00000000 NULL
P        6.14560970       6.87588964       8.17859627       0.00000000 NULL
P        2.75942439       4.98886555       1.13447214       0.00000000 NULL
P        2.27501358       6.05848927       7.03314590       0.00000000 NULL
P        6.63002051       5.80626593       2.27992251       0.00000000 NULL
P        1.85046995       0.97444271       2.07692722       0.00000000 NULL
P        7.05456414      10.89031248       7.23614119       0.00000000 NULL
P        4.88195274       7.06970077       1.86477397       0.00000000 NULL
P        4.02308134       4.79505442       7.44829444       0.00000000 NULL
18
Lattice="5.745721938620603 -0.2501901526018518 0.006322394024639478 1.6869993593779085 8.323835841598758 0.2633353060086967 1.2053150025723158 3.751273860872285 9.278750320671705" Properties=species:S:1:pos:R:3:initial_magmoms:R:1:castep_labels:S:1 n_minim_iter=4 pbc="T T T"
P        6.70998906       8.82200114       6.58381681       0.00000000 NULL
P        1.92804724       3.00291841       2.96459121       0.00000000 NULL
P        4.00519319       6.15985523       5.95074024       0.00000000 NULL
P        4.63284311       5.66506432       3.59766778       0.00000000 NULL
P        3.67146501       7.92463335       7.18048619       0.00000000 NULL
P        4.96657129       3.90028620       2.36792183       0.00000000 NULL
P        5.02461443      10.02866012       5.94086623       0.00000000 NULL
P        3.61342187       1.79625943       3.60754179       0.00000000 NULL
P        3.08305088       9.94098394       7.80195049       0.00000000 NULL
P        5.55498542       1.88393561       1.74645753       0.00000000 NULL
P        5.98020710       6.87777000       8.33736716       0.00000000 NULL
P        2.65782920       4.94714955       1.21104086       0.00000000 NULL
P        2.15218142       6.10781997       7.17718783       0.00000000 NULL
P        6.48585488       5.71709958       2.37122019       0.00000000 NULL
P        1.81843876       0.97207439       2.10734969       0.00000000 NULL
P        6.81959754      10.85284516       7.44105834       0.00000000 NULL
P        4.72967551       7.00049270       1.96881463       0.00000000 NULL
P        3.90836079       4.82442685       7.57959339       0.00000000 NULL
18
Lattice="5.656813658017781 -0.4284246841923645 -0.025052454518557876 1.4007226418968237 8.157655551210738 0.45552308174892286 1.0286778970200319 3.8896014835896007 9.520064681378301" Properties=species:S:1:pos:R:3:initial_magmoms:R:1:castep_labels:S:1 n_minim_iter=5 pbc="T T T"
P        6.29583997       8.64127643       6.87541967       0.00000000 NULL
P        1.79037423       2.97755592       3.07511563       0.00000000 NULL
P        3.72390024       6.09091317       6.17180245       0.00000000 NULL
P        4.36231395       5.52791918       3.77873286       0.00000000 NULL
P        3.33737220       7.86789036       7.47531391       0.00000000 NULL
P        4.74884200       3.75094199       2.47522140       0.00000000 NULL
P        4.59953093       9.87608310       6.26298493       0.00000000 NULL
P        3.48668327       1.74274925       3.68755038       0.00000000 NULL
P        2.69204757       9.89774410       8.15827186       0.00000000 NULL
P        5.39416663       1.72108825       1.79226345       0.00000000 NULL
P        5.63050768       6.80003297       8.61002350       0.00000000 NULL
P        2.45570652       4.81879938       1.34051180       0.00000000 NULL
P        1.89282508       6.13344358       7.43522171       0.00000000 NULL
P        6.19338911       5.48538877       2.51531360       0.00000000 NULL
P        1.74887963       0.95398450       2.15876117       0.00000000 NULL
P        6.33733457      10.66484786       7.79177414       0.00000000 NULL
P        4.42428529       6.79755204       2.13865849       0.00000000 NULL
P        3.66192890       4.82128031       7.81187682       0.00000000 NULL
18
Lattice="5.54209680919451 -0.7769424471711094 -0.1425671551689534 0.8619812666757736 7.771739581552488 0.7031304943697211 0.6090963479522653 4.015837329450589 10.005278426112879" Properties=species:S:1:pos:R:3:initial_magmoms:R:1:castep_labels:S:1 n_minim_iter=6 pbc="T T T"
P        5.50147212       8.14134126       7.31241677       0.00000000 NULL
P        1.51170231       2.86929320       3.25342499       0.00000000 NULL
P        3.16080873       5.84243695       6.52447617       0.00000000 NULL
P        3.85236570       5.16819751       4.04136559       0.00000000 NULL
P        2.66339008       7.61021756       7.96374338       0.00000000 NULL
P        4.34978434       3.40041691       2.60209839       0.00000000 NULL
P        3.76903941       9.43458752       6.75406237       0.00000000 NULL
P        3.24413501       1.57604694       3.81177939       0.00000000 NULL
P        1.88976933       9.64193388       8.75280573       0.00000000 NULL
P        5.12340509       1.36870058       1.81303603       0.00000000 NULL
P        4.92980474       6.49155906       9.05410604       0.00000000 NULL
P        2.08336969       4.51907541       1.51173573       0.00000000 NULL
P        1.34090294       6.04888056       7.89561562       0.00000000 NULL
P        5.67227148       4.96175391       2.67022615       0.00000000 NULL
P        1.61192316       0.88413110       2.24425226       0.00000000 NULL
P        5.40125127      10.12650337       8.32158950       0.00000000 NULL
P        3.86175042       6.32566362       2.33561511       0.00000000 NULL
P        3.15142400       4.68497084       8.23022665       0.00000000 NULL
18
Lattice="5.587146091135845 -0.7798430078618093 -0.20693558296253506 0.8738667087301037 7.891231096774101 0.6993277344415181 0.5170179337725912 4.08659008985656 10.18992403798001" Properties=species:S:1:pos:R:3:initial_magmoms:R:1:castep_labels:S:1 n_minim_iter=7 pbc="T T T"
P        5.48887353       8.27185628       7.38984517       0.00000000 NULL
P        1.48915720       2.92612190       3.29247102       0.00000000 NULL
P        3.12340194       5.95043655       6.60009149       0.00000000 NULL
P        3.85462879       5.24754163       4.08222470       0.00000000 NULL
P        2.63112607       7.74145536       8.08680298       0.00000000 NULL
P        4.34690467       3.45652282       2.59551321       0.00000000 NULL
P        3.73658129       9.59592837       6.84047352       0.00000000 NULL
P        3.24144944       1.60204981       3.84184267       0.00000000 NULL
P        1.83101195       9.79726084       8.89394322       0.00000000 NULL
P        5.14701878       1.40071733       1.78837297       0.00000000 NULL
P        4.88125334       6.60666969       9.15788889       0.00000000 NULL
P        2.09677740       4.59130849       1.52442730       0.00000000 NULL
P        1.26745994       6.14221752       8.02878383       0.00000000 NULL
P        5.71057079       5.05576066       2.65353236       0.00000000 NULL
P        1.60452722       0.90100706       2.26760547       0.00000000 NULL
P        5.37350352      10.29697112       8.41471072       0.00000000 NULL
P        3.87564408       6.42673031       2.31125413       0.00000000 NULL
P        3.10238665       4.77124787       8.37106206       0.00000000 NULL
18
Lattice="5.505334415467704 -0.7702221290382042 -0.22376649721869496 0.8585017033250384 7.769186915874455 0.704302886486318 0.47724174331560626 4.048323167471755 10.097751099086064" Properties=species:S:1:pos:R:3:initial_magmoms:R:1:castep_labels:S:1 n_minim_iter=8 pbc="T T T"
P        5.38551267       8.15740139       7.31900772       0.00000000 NULL
P        1.45556519       2.88988657       3.25927977       0.00000000 NULL
P        3.05415093       5.87552309       6.53827220       0.00000000 NULL
P        3.78692694       5.17176487       4.04001529       0.00000000 NULL
P        2.57130195       7.63973289       8.01565514       0.00000000 NULL
P        4.26977591       3.40755506       2.56263234       0.00000000 NULL
P        3.65768118       9.46322685       6.78245241       0.00000000 NULL
P        3.18339668       1.58406110       3.79583508       0.00000000 NULL
P        1.77598387       9.66500691       8.82035893       0.00000000 NULL
P        5.06509399       1.38228104       1.75792855       0.00000000 NULL
P        4.77821346       6.52521834       9.06240658       0.00000000 NULL
P        2.06286440       4.52206961       1.51588091       0.00000000 NULL
P        1.22153715       6.06431847       7.95856880       0.00000000 NULL
P        5.61954071       4.98296949       2.61971869       0.00000000 NULL
P        1.57390730       0.89243143       2.24254799       0.00000000 NULL
P        5.26717056      10.15485652       8.33573950       0.00000000 NULL
P        3.81052839       6.32794535       2.28474523       0.00000000 NULL
P        3.03054947       4.71934261       8.29354226       0.00000000 NULL
18
Lattice="5.509303277557357 -0.7819380069270903 -0.2404819894842064 0.8431755804557256 7.786843510161136 0.7152255571241108 0.44496128275139524 4.0732291397374505 10.114292475421484" Properties=species:S:1:pos:R:3:initial_magmoms:R:1:castep_labels:S:1 n_minim_iter=9 pbc="T T T"
P        5.35613303       8.17668372       7.32670143       0.00000000 NULL
P        1.44130711       2.90145092       3.26233461       0.00000000 NULL
P        3.02682725       5.89654253       6.54568309       0.00000000 NULL
P        3.77061289       5.18159211       4.04335295       0.00000000 NULL
P        2.54282116       7.66638302       8.03079300       0.00000000 NULL
P        4.25461898       3.41175162       2.55824305       0.00000000 NULL
P        3.62303286       9.49151088       6.79653505       0.00000000 NULL
P        3.17440728       1.58662377       3.79250099       0.00000000 NULL
P        1.73761393       9.69825706       8.84116662       0.00000000 NULL
P        5.05982621       1.37987758       1.74786942       0.00000000 NULL
P        4.74407925       6.54721323       9.06703436       0.00000000 NULL
P        2.05336089       4.53092141       1.52200169       0.00000000 NULL
P        1.18886929       6.08744722       7.97354766       0.00000000 NULL
P        5.60857085       4.99068742       2.61548838       0.00000000 NULL
P        1.56773104       0.89500282       2.24169606       0.00000000 NULL
P        5.22970910      10.18313182       8.34733998       0.00000000 NULL
P        3.79409597       6.33864197       2.28289062       0.00000000 NULL
P        3.00334417       4.73949267       8.30614543       0.00000000 NULL
18
Lattice="5.500627602422811 -0.7915163587544048 -0.2612248744868726 0.8264041341822773 7.787849061703002 0.7243778560525417 0.4046872406295618 4.090973214769714 10.116427479898883" Properties=species:S:1:pos:R:3:initial_magmoms:R:1:castep_labels:S:1 n_minim_iter=10 pbc="T T T"
P        5.31036680       8.17953735       7.32026147       0.00000000 NULL
P        1.42135218       2.90776857       3.25931899       0.00000000 NULL
P        2.98788192       5.90676922       6.54176103       0.00000000 NULL
P        3.74383706       5.18053670       4.03781944       0.00000000 NULL
P        2.50446640       7.67794168       8.03285316       0.00000000 NULL
P        4.22725258       3.40936424       2.54672730       0.00000000 NULL
P        3.57579992       9.50102112       6.79857345       0.00000000 NULL
P        3.15591906       1.58628480       3.78100701       0.00000000 NULL
P        1.69002445       9.71185522       8.84813479       0.00000000 NULL
P        5.04169453       1.37545070       1.73144567       0.00000000 NULL
P        4.69267928       6.55706276       9.05454716       0.00000000 NULL
P        2.03903970       4.53024316       1.52503330       0.00000000 NULL
P        1.14806811       6.09835921       7.97630616       0.00000000 NULL
P        5.58365086       4.98894671       2.60327430       0.00000000 NULL
P        1.55647340       0.89611513       2.23642196       0.00000000 NULL
P        5.17524558      10.19119079       8.34315850       0.00000000 NULL
P        3.76798803       6.33590194       2.27399320       0.00000000 NULL
P        2.96373095       4.75140398       8.30558726       0.00000000 NULL
18
Lattice="5.434504987808879 -0.8754167327857161 -0.4538742570703975 0.6830090047131012 7.822178061014092 0.7908931877039751 0.0370526040435126 4.2463866154099525 10.14443388971078" Properties=species:S:1:pos:R:3:initial_magmoms:R:1:castep_labels:S:1 n_minim_iter=11 pbc="T T T"
P        4.91078313       8.22303403       7.25025181       0.00000000 NULL
P        1.24378346       2.97011392       3.23120101       0.00000000 NULL
P        2.64155411       6.01082590       6.50451977       0.00000000 NULL
P        3.51301248       5.18232205       3.97693305       0.00000000 NULL
P        2.16305451       7.79448324       8.04516182       0.00000000 NULL
P        3.99151209       3.39866470       2.43629100       0.00000000 NULL
P        3.15927104       9.60996281       6.80580004       0.00000000 NULL
P        2.99529556       1.58318513       3.67565278       0.00000000 NULL
P        1.26537751       9.85114115       8.90342510       0.00000000 NULL
P        4.88918908       1.34200680       1.57802772       0.00000000 NULL
P        4.23778775       6.65562637       8.93967376       0.00000000 NULL
P        1.91677884       4.53752157       1.54177906       0.00000000 NULL
P        0.78260613       6.20279815       8.00062725       0.00000000 NULL
P        5.37196047       4.99034979       2.48082557       0.00000000 NULL
P        1.45771499       0.90557274       2.18813927       0.00000000 NULL
P        4.69685161      10.28757520       8.29331355       0.00000000 NULL
P        3.54625619       6.33108945       2.18020795       0.00000000 NULL
P        2.60831041       4.86205849       8.30124487       0.00000000 NULL
18
Lattice="5.506842181933946 -0.8270805960963848 -0.6092737724594925 0.7778052394226523 8.002179461274405 0.8112433234021245 -0.16065934070639384 4.4088734064559745 10.411202929087969" Properties=species:S:1:pos:R:3:initial_magmoms:R:1:castep_labels:S:1 n_minim_iter=12 pbc="T T T"
P        4.92470477       8.48806196       7.32850266       0.00000000 NULL
P        1.19928331       3.09591031       3.28466982       0.00000000 NULL
P        2.56399853       6.25274716       6.63168645       0.00000000 NULL
P        3.55998955       5.33122511       3.98148603       0.00000000 NULL
P        2.13293079       8.04800665       8.22321748       0.00000000 NULL
P        3.99105729       3.53596563       2.38995500       0.00000000 NULL
P        3.13493407       9.91978677       6.93326870       0.00000000 NULL
P        2.98905402       1.66418551       3.67990378       0.00000000 NULL
P        1.19632046      10.12941356       9.11681502       0.00000000 NULL
P        4.92766762       1.45455872       1.49635746       0.00000000 NULL
P        4.13606321       6.92732668       9.05162131       0.00000000 NULL
P        1.98792487       4.65664559       1.56155117       0.00000000 NULL
P        0.66503936       6.37854855       8.18562152       0.00000000 NULL
P        5.45894872       5.20542373       2.42755096       0.00000000 NULL
P        1.43895353       0.94889837       2.19371615       0.00000000 NULL
P        4.68503455      10.63507390       8.41945633       0.00000000 NULL
P        3.61890962       6.51984792       2.12711305       0.00000000 NULL
P        2.50507846       5.06412435       8.48605943       0.00000000 NULL
18
Lattice="5.37316962923968 -0.8333469950737842 -0.6127581099741014 0.7212891480325225 7.822492846227327 0.8199004907403232 -0.20116364039334486 4.343942791860393 10.217601941210074" Properties=species:S:1:pos:R:3:initial_magmoms:R:1:castep_labels:S:1 n_minim_iter=13 pbc="T T T"
P        4.74643061       8.29965131       7.19971559       0.00000000 NULL
P        1.14686453       3.03343733       3.22502873       0.00000000 NULL
P        2.45208868       6.12668305       6.51903699       0.00000000 NULL
P        3.44120646       5.20640560       3.90570733       0.00000000 NULL
P        2.02749377       7.88302751       8.07969781       0.00000000 NULL
P        3.86580136       3.45006114       2.34504651       0.00000000 NULL
P        2.99447788       9.70741556       6.82207842       0.00000000 NULL
P        2.89881725       1.62567308       3.60266591       0.00000000 NULL
P        1.09959598       9.92588034       8.96441770       0.00000000 NULL
P        4.79369916       1.40720830       1.46032663       0.00000000 NULL
P        3.97678112       6.78565414       8.88087150       0.00000000 NULL
P        1.91651401       4.54743451       1.54387282       0.00000000 NULL
P        0.60253312       6.25768139       8.03907274       0.00000000 NULL
P        5.29076202       5.07540726       2.38567158       0.00000000 NULL
P        1.39334302       0.92862473       2.14897721       0.00000000 NULL
P        4.49995212      10.40446391       8.27576711       0.00000000 NULL
P        3.49366372       6.36367437       2.09695377       0.00000000 NULL
P        2.39963142       4.96941427       8.32779055       0.00000000 NULL
18
Lattice="5.4151116193952165 -0.861108716543818 -0.621021552530132 0.6965501342723545 7.8805490475237745 0.8400436103692337 -0.22090795287467116 4.39121955045465 10.26747860293004" Properties=species:S:1:pos:R:3:initial_magmoms:R:1:castep_labels:S:1 n_minim_iter=14 pbc="T T T"
P        4.74888772       8.35241752       7.24237347       0.00000000 NULL
P        1.14186608       3.05824236       3.24412719       0.00000000 NULL
P        2.44310664       6.17476526       6.55778966       0.00000000 NULL
P        3.44764716       5.23589462       3.92871100       0.00000000 NULL
P        2.01261275       7.94585258       8.12819065       0.00000000 NULL
P        3.87814106       3.46480731       2.35831001       0.00000000 NULL
P        2.97608456       9.77995867       6.86916813       0.00000000 NULL
P        2.91466925       1.63070122       3.61733253       0.00000000 NULL
P        1.06861958      10.00879566       9.02096477       0.00000000 NULL
P        4.82213423       1.40186422       1.46553589       0.00000000 NULL
P        3.97644812       6.83503303       8.92714089       0.00000000 NULL
P        1.91430568       4.57562685       1.55935977       0.00000000 NULL
P        0.58155805       6.31266665       8.08274816       0.00000000 NULL
P        5.30919575       5.09799323       2.40375250       0.00000000 NULL
P        1.39985262       0.93196984       2.15683496       0.00000000 NULL
P        4.49090118      10.47869005       8.32966570       0.00000000 NULL
P        3.49329445       6.40223053       2.11514492       0.00000000 NULL
P        2.39745935       5.00842935       8.37135574       0.00000000 NULL
18
Lattice="5.412429883750128 -0.8704368629749392 -0.6267363474589647 0.6822689167843081 7.881086554959525 0.8487806131428661 -0.23607448596877484 4.402466922911757 10.265580058069155" Properties=species:S:1:pos:R:3:initial_magmoms:R:1:castep_labels:S:1 n_minim_iter=15 pbc="T T T"
P        4.72638971       8.35148856       7.24283616       0.00000000 NULL
P        1.13223461       3.06162806       3.24478816       0.00000000 NULL
P        2.42332940       6.18050443       6.56034470       0.00000000 NULL
P        3.43529491       5.23261219       3.92727963       0.00000000 NULL
P        1.99332915       7.95137985       8.13092457       0.00000000 NULL
P        3.86529516       3.46173676       2.35669976       0.00000000 NULL
P        2.95049282       9.78397763       6.87472959       0.00000000 NULL
P        2.90813150       1.62913898       3.61289473       0.00000000 NULL
P        1.04434674      10.01679407       9.02576511       0.00000000 NULL
P        4.81427758       1.39632255       1.46185922       0.00000000 NULL
P        3.95303857       6.83967606       8.92445714       0.00000000 NULL
P        1.90558575       4.57344056       1.56316718       0.00000000 NULL
P        0.56465857       6.31944096       8.08275666       0.00000000 NULL
P        5.29396574       5.09367565       2.40486767       0.00000000 NULL
P        1.39567074       0.93119712       2.15383132       0.00000000 NULL
P        4.46295357      10.48191949       8.33379301       0.00000000 NULL
P        3.47751237       6.39948440       2.11700232       0.00000000 NULL
P        2.38111194       5.01363222       8.37062200       0.00000000 NULL
18
Lattice="5.41050764581968 -0.8851706534209101 -0.6393908582083478 0.6605349700032159 7.889664655534681 0.8650386365167467 -0.265174802980233 4.427581941666864 10.273593026060166" Properties=species:S:1:pos:R:3:initial_magmoms:R:1:castep_labels:S:1 n_minim_iter=16 pbc="T T T"
P        4.69063285       8.35977775       7.24970104       0.00000000 NULL
P        1.11523496       3.07229819       3.24953976       0.00000000 NULL
P        2.38856410       6.19962392       6.57208777       0.00000000 NULL
P        3.41730371       5.23245202       3.92715304       0.00000000 NULL
P        1.96150542       7.97047266       8.14461489       0.00000000 NULL
P        3.84436239       3.46160329       2.35462592       0.00000000 NULL
P        2.90764566       9.80274405       6.89179402       0.00000000 NULL
P        2.89822215       1.62933190       3.60744678       0.00000000 NULL
P        1.00301386      10.04147617       9.04380359       0.00000000 NULL
P        4.80285395       1.39059977       1.45543721       0.00000000 NULL
P        3.91236738       6.85785096       8.92787112       0.00000000 NULL
P        1.89350043       4.57422499       1.57136968       0.00000000 NULL
P        0.53485767       6.33773843       8.09070587       0.00000000 NULL
P        5.27101014       5.09433751       2.40853493       0.00000000 NULL
P        1.38868625       0.93115136       2.14965430       0.00000000 NULL
P        4.41718156      10.50092458       8.34958650       0.00000000 NULL
P        3.45324191       6.40256883       2.12063283       0.00000000 NULL
P        2.35262591       5.02950711       8.37860797       0.00000000 NULL
18
Lattice="5.403191666601149 -0.8908415717667745 -0.6592043709495293 0.6498298304724427 7.902787132900809 0.8825555089122075 -0.30133583769685196 4.459546939812649 10.29790229867098" Properties=species:S:1:pos:R:3:initial_magmoms:R:1:castep_labels:S:1 n_minim_iter=17 pbc="T T T"
P        4.65607358       8.38063599       7.26179306       0.00000000 NULL
P        1.09561208       3.09085651       3.25946037       0.00000000 NULL
P        2.34841992       6.23318754       6.59448507       0.00000000 NULL
P        3.40326574       5.23830496       3.92676837       0.00000000 NULL
P        1.93232470       8.00064348       8.17088274       0.00000000 NULL
P        3.81936096       3.47084902       2.35037070       0.00000000 NULL
P        2.86598963       9.83537992       6.91895730       0.00000000 NULL
P        2.88569603       1.63611258       3.60229613       0.00000000 NULL
P        0.96488392      10.07578757       9.07491518       0.00000000 NULL
P        4.78680174       1.39570493       1.44633826       0.00000000 NULL
P        3.86378271       6.89267256       8.93984369       0.00000000 NULL
P        1.88790295       4.57881994       1.58140975       0.00000000 NULL
P        0.50438452       6.36128061       8.10812618       0.00000000 NULL
P        5.24730114       5.11021189       2.41312726       0.00000000 NULL
P        1.37917823       0.93369402       2.14488187       0.00000000 NULL
P        4.37250743      10.53779848       8.37637156       0.00000000 NULL
P        3.43254402       6.41566145       2.12141835       0.00000000 NULL
P        2.31914164       5.05583105       8.39983509       0.00000000 NULL
18
Lattice="5.359463669182365 -0.9264026822808976 -0.8086824378737107 0.5834648350902573 7.994936893539521 1.0397682541906736 -0.5671383882475445 4.725938430669829 10.507712048297046" Properties=species:S:1:pos:R:3:initial_magmoms:R:1:castep_labels:S:1 n_minim_iter=18 pbc="T T T"
P        4.42491213       8.54774799       7.38120197       0.00000000 NULL
P        0.95087798       3.24672465       3.35759589       0.00000000 NULL
P        2.05336531       6.51079521       6.80053505       0.00000000 NULL
P        3.32242480       5.28367744       3.93826281       0.00000000 NULL
P        1.72994600       8.24881876       8.40953778       0.00000000 NULL
P        3.64584412       3.54565389       2.32926008       0.00000000 NULL
P        2.57150492      10.09600481       7.17343020       0.00000000 NULL
P        2.80428519       1.69846783       3.56536766       0.00000000 NULL
P        0.69605983      10.34998165       9.35064173       0.00000000 NULL
P        4.67973029       1.44449099       1.38815614       0.00000000 NULL
P        3.51407256       7.18417486       9.06705054       0.00000000 NULL
P        1.86171756       4.61029779       1.67174732       0.00000000 NULL
P        0.29241445       6.54871092       8.25823241       0.00000000 NULL
P        5.08337566       5.24576172       2.48056545       0.00000000 NULL
P        1.31352657       0.95582656       2.10833013       0.00000000 NULL
P        4.06226354      10.83864608       8.63046774       0.00000000 NULL
P        3.29391580       6.51906449       2.14716847       0.00000000 NULL
P        2.08187432       5.27540815       8.59162940       0.00000000 NULL
18
Lattice="5.745902518909289 -1.2161227413774933 -0.8165919498388275 0.3070482020819455 7.984336907106832 1.090746661331995 -0.6624227379916047 4.755862979135545 10.706552534353401" Properties=species:S:1:pos:R:3:initial_magmoms:R:1:castep_labels:S:1 n_minim_iter=19 pbc="T T T"
P        4.48257367       8.29421785       7.52013298       0.00000000 NULL
P        0.90795432       3.22985929       3.46057427       0.00000000 NULL
P        1.98630000       6.43197714       6.94833736       0.00000000 NULL
P        3.40422799       5.09210001       4.03236989       0.00000000 NULL
P        1.59204842       8.20449760       8.62058109       0.00000000 NULL
P        3.79847956       3.31957954       2.36012616       0.00000000 NULL
P        2.41553893       9.97519253       7.37674063       0.00000000 NULL
P        2.97498905       1.54888461       3.60396661       0.00000000 NULL
P        0.42955852      10.33379540       9.55284419       0.00000000 NULL
P        4.96096947       1.19028175       1.42786306       0.00000000 NULL
P        3.57817541       7.00287743       9.26085101       0.00000000 NULL
P        1.81235258       4.52119972       1.71985623       0.00000000 NULL
P        0.15570401       6.52748636       8.40246791       0.00000000 NULL
P        5.23482397       4.99659078       2.57823933       0.00000000 NULL
P        1.38802554       0.87564550       2.13015981       0.00000000 NULL
P        4.00250244      10.64843164       8.85054744       0.00000000 NULL
P        3.25489236       6.37421916       2.19790031       0.00000000 NULL
P        2.13563562       5.14985799       8.78280693       0.00000000 NULL
18
Lattice="5.445368648057908 -1.0827971040968276 -0.7980519040768401 0.3905928548473419 7.6723353834353 1.0161771298251778 -0.6239445970509978 4.547491196502705 10.387929267953918" Properties=species:S:1:pos:R:3:initial_magmoms:R:1:castep_labels:S:1 n_minim_iter=20 pbc="T T T"
P        4.32460005       8.02682359       7.26259974       0.00000000 NULL
P        0.88741685       3.11020589       3.34345475       0.00000000 NULL
P        1.93083910       6.20225502       6.72285258       0.00000000 NULL
P        3.28117781       4.93477446       3.88320191       0.00000000 NULL
P        1.57521348       7.89532832       8.33714761       0.00000000 NULL
P        3.63680342       3.24170116       2.26890688       0.00000000 NULL
P        2.38745467       9.60818980       7.11681254       0.00000000 NULL
P        2.82456224       1.52883967       3.48924196       0.00000000 NULL
P        0.49152981       9.92126090       9.23075541       0.00000000 NULL
P        4.72048709       1.21576858       1.37529908       0.00000000 NULL
P        3.43776088       6.77156895       8.96125212       0.00000000 NULL
P        1.77425603       4.36546053       1.64480237       0.00000000 NULL
P        0.19287873       6.25986868       8.13247551       0.00000000 NULL
P        5.01913818       4.87716079       2.47357899       0.00000000 NULL
P        1.31705001       0.86222647       2.06693888       0.00000000 NULL
P        3.89496690      10.27480301       8.53911561       0.00000000 NULL
P        3.16454624       6.16548440       2.09665445       0.00000000 NULL
P        2.04747067       4.97154507       8.50940004       0.00000000 NULL
18
Lattice="5.483557359009977 -1.0464232248479999 -0.8004620915509029 0.45614805349310517 7.742607851217051 1.026654040099338 -0.5970176343640756 4.5924518041500715 10.483967076825312" Properties=species:S:1:pos:R:3:initial_magmoms:R:1:castep_labels:S:1 n_minim_iter=21 pbc="T T T"
P        4.42464805       8.13929731       7.33261172       0.00000000 NULL
P        0.91803972       3.14933912       3.37754731       0.00000000 NULL
P        1.99464417       6.27920119       6.78575265       0.00000000 NULL
P        3.34804361       5.00943524       3.92440638       0.00000000 NULL
P        1.64911344       7.98755174       8.41922427       0.00000000 NULL
P        3.69357433       3.30108469       2.29093476       0.00000000 NULL
P        2.48273345       9.71908176       7.18657432       0.00000000 NULL
P        2.85995432       1.56955467       3.52358471       0.00000000 NULL
P        0.57281672      10.02056635       9.31764775       0.00000000 NULL
P        4.76987106       1.26807008       1.39251127       0.00000000 NULL
P        3.51757420       6.86988411       9.04935871       0.00000000 NULL
P        1.82511358       4.41875232       1.66080032       0.00000000 NULL
P        0.24148616       6.32286161       8.20801933       0.00000000 NULL
P        5.10120162       4.96577482       2.50213969       0.00000000 NULL
P        1.33458257       0.88240502       2.08610376       0.00000000 NULL
P        4.00810521      10.40623141       8.62405526       0.00000000 NULL
P        3.24073947       6.24876882       2.11916451       0.00000000 NULL
P        2.10194830       5.03986761       8.59099452       0.00000000 NULL
18
Lattice="5.465626985515454 -1.0174914493098695 -0.8036513109499526 0.4911025219015019 7.744749461578788 1.0300841862825618 -0.5889025168300336 4.600818418865378 10.496207817858185" Properties=species:S:1:pos:R:3:initial_magmoms:R:1:castep_labels:S:1 n_minim_iter=22 pbc="T T T"
P        4.44234255       8.16959088       7.34000850       0.00000000 NULL
P        0.92548444       3.15848555       3.38263219       0.00000000 NULL
P        2.00915282       6.29718256       6.79348610       0.00000000 NULL
P        3.35867417       5.03089387       3.92915459       0.00000000 NULL
P        1.67119454       8.00621237       8.43163060       0.00000000 NULL
P        3.69663245       3.32186406       2.29101009       0.00000000 NULL
P        2.51294556       9.73918245       7.19720131       0.00000000 NULL
P        2.85488143       1.58889398       3.52543939       0.00000000 NULL
P        0.60607525      10.03259301       9.32971124       0.00000000 NULL
P        4.76175174       1.29548342       1.39292946       0.00000000 NULL
P        3.52749018       6.89938134       9.06010844       0.00000000 NULL
P        1.84033681       4.42869509       1.66253225       0.00000000 NULL
P        0.25976719       6.33149169       8.21731361       0.00000000 NULL
P        5.10805980       4.99658474       2.50532708       0.00000000 NULL
P        1.33249836       0.89156841       2.08716309       0.00000000 NULL
P        4.03532864      10.43650802       8.63547760       0.00000000 NULL
P        3.25943603       6.26801416       2.12193118       0.00000000 NULL
P        2.10839096       5.06006227       8.60070951       0.00000000 NULL
18
Lattice="5.443295957351657 -0.9782768618562885 -0.8137774031864116 0.539182069898693 7.765197978155432 1.0462904004077371 -0.5865375164093203 4.634451227207703 10.532344048156087" Properties=species:S:1:pos:R:3:initial_magmoms:R:1:castep_labels:S:1 n_minim_iter=23 pbc="T T T"
P        4.46291270       8.23834124       7.36648803       0.00000000 NULL
P        0.93302781       3.18303110       3.39836901       0.00000000 NULL
P        2.02387662       6.34447487       6.81928467       0.00000000 NULL
P        3.37206389       5.07689747       3.94557238       0.00000000 NULL
P        1.69558430       8.06044933       8.47004332       0.00000000 NULL
P        3.70035621       3.36092301       2.29481373       0.00000000 NULL
P        2.55009889       9.79694767       7.23334492       0.00000000 NULL
P        2.84584162       1.62442467       3.53151213       0.00000000 NULL
P        0.64471653      10.08159328       9.37067887       0.00000000 NULL
P        4.75122398       1.33977906       1.39417817       0.00000000 NULL
P        3.53474349       6.96752553       9.09349984       0.00000000 NULL
P        1.86119702       4.45384681       1.67135721       0.00000000 NULL
P        0.27862595       6.36608806       8.24780585       0.00000000 NULL
P        5.11731456       5.05528428       2.51705119       0.00000000 NULL
P        1.32875819       0.90842892       2.09041122       0.00000000 NULL
P        4.06718232      10.51294342       8.67444583       0.00000000 NULL
P        3.28437563       6.31219597       2.13460831       0.00000000 NULL
P        2.11156488       5.10917637       8.63024874       0.00000000 NULL
