12
Lattice="5.07756 5.342615018715971e-16 -1.5274058829859726e-16 0.5880004373899836 6.640377333798823 -2.177848832062641e-15 2.067774491638671 1.6500957047793585 7.513324552313515" Properties=species:S:1:pos:R:3:initial_magmoms:R:1:castep_labels:S:1 n_minim_iter=1 pbc="T T T"
P        4.38980875       7.64876335       6.39465289       0.00000000 NULL
P        3.01248327       1.95067168       3.20464630       0.00000000 NULL
P        5.56864353       3.43257403       6.05616184       0.00000000 NULL
P        5.87854371       4.60112093       3.62647740       0.00000000 NULL
P        4.84268542       2.88497422       3.23624584       0.00000000 NULL
P        4.08718029       5.69553963       6.78015781       0.00000000 NULL
P        5.98028668       5.33014324       7.49257500       0.00000000 NULL
P        2.18192102       6.37468324       4.70139071       0.00000000 NULL
P        5.65928266       5.37952449       5.51006110       0.00000000 NULL
P        6.74796703       7.98796343       6.29911045       0.00000000 NULL
P        5.82391189       6.50867851       2.94191285       0.00000000 NULL
P        5.25773944       2.81659827       1.27910218       0.00000000 NULL
12
Lattice="5.0870844311302825 0.0024639314193081164 -0.0002954836317955019 0.592325704648137 6.658674222018207 -0.0033285688811840897 2.0720166933979556 1.6518474514940131 7.530176425495203" Properties=species:S:1:pos:R:3:initial_magmoms:R:1:castep_labels:S:1 n_minim_iter=2 pbc="T T T"
P        4.40137697       7.66878227       6.40573172       0.00000000 NULL
P        3.01884909       1.95578408       3.21110786       0.00000000 NULL
P        5.58034134       3.44138809       6.06861058       0.00000000 NULL
P        5.89176263       4.61453239       3.63231390       0.00000000 NULL
P        4.85282872       2.89340468       3.24229603       0.00000000 NULL
P        4.09674083       5.70946682       6.79327155       0.00000000 NULL
P        5.99383406       5.34374835       7.50773338       0.00000000 NULL
P        2.18903494       6.39090273       4.70910141       0.00000000 NULL
P        5.67216241       5.39426869       5.51978698       0.00000000 NULL
P        6.76416621       8.00971138       6.30972422       0.00000000 NULL
P        5.83778292       6.52791123       2.94521193       0.00000000 NULL
P        5.26911725       2.82603975       1.28028430       0.00000000 NULL
12
Lattice="5.287504076314388 0.05697199454434445 -0.007652823080649793 0.686820096819686 7.048520726689553 -0.07751283485233829 2.160462338875832 1.686378710780574 7.8878895623994385" Properties=species:S:1:pos:R:3:initial_magmoms:R:1:castep_labels:S:1 n_minim_iter=3 pbc="T T T"
P        4.64748195       8.09400412       6.63707926       0.00000000 NULL
P        3.15314936       2.06429931       3.34721661       0.00000000 NULL
P        5.82682722       3.62826494       6.33114838       0.00000000 NULL
P        6.17164086       4.90078694       3.75304235       0.00000000 NULL
P        5.06679147       3.07308021       3.36882047       0.00000000 NULL
P        4.29891752       6.00421159       7.06913172       0.00000000 NULL
P        6.28014066       5.63214029       7.82714299       0.00000000 NULL
P        2.34114654       6.73523202       4.86969078       0.00000000 NULL
P        5.94486916       5.70802337       5.72286514       0.00000000 NULL
P        7.10774871       8.47238867       6.53061356       0.00000000 NULL
P        6.13247310       6.93849212       3.01114835       0.00000000 NULL
P        5.50994604       3.02854277       1.30293415       0.00000000 NULL
12
Lattice="5.310267716485935 0.07456676368068416 -0.022771489054642262 0.7124664577772755 7.132554860231208 -0.1310585768251795 2.1530792027240966 1.6553157174629234 7.983549703358238" Properties=species:S:1:pos:R:3:initial_magmoms:R:1:castep_labels:S:1 n_minim_iter=4 pbc="T T T"
P        4.67576367       8.15660894       6.66194842       0.00000000 NULL
P        3.16512091       2.07466496       3.37268496       0.00000000 NULL
P        5.84505049       3.64197411       6.38240471       0.00000000 NULL
P        6.20536487       4.95022328       3.75188975       0.00000000 NULL
P        5.08483989       3.09772350       3.38129833       0.00000000 NULL
P        4.31062236       6.03559923       7.11698532       0.00000000 NULL
P        6.30475846       5.65887324       7.88748774       0.00000000 NULL
P        2.35904650       6.78841929       4.88357820       0.00000000 NULL
P        5.97386431       5.75170833       5.74315580       0.00000000 NULL
P        7.14576376       8.54367058       6.54461153       0.00000000 NULL
P        6.17297762       7.01591961       2.98949066       0.00000000 NULL
P        5.54315177       3.06978294       1.28363081       0.00000000 NULL
12
Lattice="5.29392943864121 0.08552345981520477 -0.036204280285589745 0.7249034712534524 7.145712579002251 -0.188929771099889 2.130109666746961 1.5990131138044328 8.008071344211952" Properties=species:S:1:pos:R:3:initial_magmoms:R:1:castep_labels:S:1 n_minim_iter=5 pbc="T T T"
P        4.66282440       8.12774648       6.62282935       0.00000000 NULL
P        3.15299434       2.05895707       3.36781574       0.00000000 NULL
P        5.81818993       3.60899770       6.37655718       0.00000000 NULL
P        6.18903140       4.94209539       3.71463036       0.00000000 NULL
P        5.06235724       3.08316762       3.36211519       0.00000000 NULL
P        4.28590943       5.99793383       7.09787328       0.00000000 NULL
P        6.27847425       5.61575446       7.87525680       0.00000000 NULL
P        2.35214949       6.76859042       4.84957540       0.00000000 NULL
P        5.95461243       5.72671004       5.70992678       0.00000000 NULL
P        7.12284031       8.51738381       6.49588726       0.00000000 NULL
P        6.16152245       7.01355929       2.93919524       0.00000000 NULL
P        5.53280106       3.07319685       1.25300849       0.00000000 NULL
12
Lattice="5.256431544409148 0.1049458306636589 -0.05347043060661097 0.7459614386513865 7.132188155938198 -0.29324164167865907 2.09560202732952 1.4872405655721073 8.013543310560621" Properties=species:S:1:pos:R:3:initial_magmoms:R:1:castep_labels:S:1 n_minim_iter=6 pbc="T T T"
P        4.64082518       8.03148478       6.52208794       0.00000000 NULL
P        3.13078859       2.01904234       3.34535316       0.00000000 NULL
P        5.76915485       3.53034522       6.34028978       0.00000000 NULL
P        6.15499889       4.90195273       3.63367874       0.00000000 NULL
P        5.01842140       3.04001881       3.31522495       0.00000000 NULL
P        4.24360095       5.89771210       7.03035215       0.00000000 NULL
P        6.23149195       5.50590502       7.81907288       0.00000000 NULL
P        2.34188244       6.69691366       4.76437355       0.00000000 NULL
P        5.91833803       5.64997468       5.62748616       0.00000000 NULL
P        7.07869538       8.42416540       6.38179873       0.00000000 NULL
P        6.13520028       6.97109162       2.84067672       0.00000000 NULL
P        5.50765574       3.06255537       1.19868441       0.00000000 NULL
12
Lattice="5.217979533293379 0.16429989842232695 -0.06013819246269166 0.8191311514384 7.089722334708441 -0.4876950682177552 2.0893653202635485 1.2800085587461612 7.9972672002961005" Properties=species:S:1:pos:R:3:initial_magmoms:R:1:castep_labels:S:1 n_minim_iter=7 pbc="T T T"
P        4.69377956       7.84641118       6.32170125       0.00000000 NULL
P        3.13289886       1.94941899       3.30282502       0.00000000 NULL
P        5.75841761       3.39939642       6.27111137       0.00000000 NULL
P        6.16748293       4.84082618       3.48753804       0.00000000 NULL
P        4.99620430       2.97155461       3.23335224       0.00000000 NULL
P        4.24808934       5.71022097       6.88819805       0.00000000 NULL
P        6.24320130       5.30575584       7.70568015       0.00000000 NULL
P        2.38963669       6.55384527       4.58961486       0.00000000 NULL
P        5.93811386       5.51345567       5.47608598       0.00000000 NULL
P        7.10629882       8.25478183       6.17065597       0.00000000 NULL
P        6.16580985       6.89635261       2.67158509       0.00000000 NULL
P        5.51403450       3.05573021       1.11948192       0.00000000 NULL
12
Lattice="5.206718626503025 0.27144071683381105 -0.029621407851998297 0.9579446847075541 6.9868439681753545 -0.6424992006450411 2.1647539115409944 1.1158392312585634 8.001290487625344" Properties=species:S:1:pos:R:3:initial_magmoms:R:1:castep_labels:S:1 n_minim_iter=8 pbc="T T T"
P        4.88888117       7.66063688       6.19002852       0.00000000 NULL
P        3.19371208       1.90267532       3.29345562       0.00000000 NULL
P        5.85507654       3.32607627       6.25777696       0.00000000 NULL
P        6.27965124       4.80836254       3.39605364       0.00000000 NULL
P        5.05090723       2.93879256       3.19762065       0.00000000 NULL
P        4.37679806       5.53988452       6.80103701       0.00000000 NULL
P        6.38901342       5.14363623       7.65979331       0.00000000 NULL
P        2.54636126       6.39216984       4.45900848       0.00000000 NULL
P        6.07996715       5.40578173       5.40013120       0.00000000 NULL
P        7.29137899       8.10534033       6.05363008       0.00000000 NULL
P        6.30848361       6.82902176       2.58088276       0.00000000 NULL
P        5.58659925       3.07550497       1.09722951       0.00000000 NULL
12
Lattice="5.2000844885786375 0.3917011456886225 -0.03069433057196083 1.1144516979027062 6.999606458836257 -0.7414711849485233 2.1995466268057178 1.0526822433795426 8.066405295007142" Properties=species:S:1:pos:R:3:initial_magmoms:R:1:castep_labels:S:1 n_minim_iter=9 pbc="T T T"
P        5.06736918       7.67494390       6.14788858       0.00000000 NULL
P        3.24481439       1.92249614       3.30883781       0.00000000 NULL
P        5.92871765       3.37971128       6.28517787       0.00000000 NULL
P        6.38160901       4.89396511       3.34273042       0.00000000 NULL
P        5.09980694       3.00000923       3.18408989       0.00000000 NULL
P        4.48795838       5.53205117       6.79731495       0.00000000 NULL
P        6.50102545       5.15773247       7.67897273       0.00000000 NULL
P        2.69658167       6.38040786       4.40622136       0.00000000 NULL
P        6.20636983       5.45978783       5.38361027       0.00000000 NULL
P        7.46605132       8.16972797       6.02183429       0.00000000 NULL
P        6.45276346       6.92514822       2.52833804       0.00000000 NULL
P        5.65951658       3.17259600       1.07674801       0.00000000 NULL
12
Lattice="5.17559190660094 0.41096323408255087 -0.025167506423730612 1.1368061134599783 6.952231622861391 -0.7505364740263725 2.2040101834441947 1.0372186409081166 8.029078005609763" Properties=species:S:1:pos:R:3:initial_magmoms:R:1:castep_labels:S:1 n_minim_iter=10 pbc="T T T"
P        5.08321273       7.62578670       6.10886266       0.00000000 NULL
P        3.24434560       1.91357970       3.29482902       0.00000000 NULL
P        5.92197360       3.36960346       6.25691907       0.00000000 NULL
P        6.37395267       4.87607455       3.32046388       0.00000000 NULL
P        5.08872360       2.99204882       3.16706040       0.00000000 NULL
P        4.49467256       5.49419264       6.75996055       0.00000000 NULL
P        6.49901768       5.12681044       7.64172932       0.00000000 NULL
P        2.71570203       6.33474037       4.37318707       0.00000000 NULL
P        6.20674879       5.43410178       5.35443179       0.00000000 NULL
P        7.46988500       8.12649024       5.98911287       0.00000000 NULL
P        6.45188667       6.89553469       2.51257480       0.00000000 NULL
P        5.64833395       3.16821213       1.07418705       0.00000000 NULL
12
Lattice="5.175243246370165 0.4358667320848063 -0.022133268012010307 1.1693342591240932 6.94653206999198 -0.7645621091817308 2.216451084647216 1.028960323735581 8.030751950773052" Properties=species:S:1:pos:R:3:initial_magmoms:R:1:castep_labels:S:1 n_minim_iter=11 pbc="T T T"
P        5.12525377       7.62463527       6.09735126       0.00000000 NULL
P        3.25828938       1.91760009       3.29562630       0.00000000 NULL
P        5.94236739       3.38200612       6.25675469       0.00000000 NULL
P        6.39779882       4.89033953       3.31196279       0.00000000 NULL
P        5.10234566       3.00477335       3.16378853       0.00000000 NULL
P        4.52311168       5.49087026       6.75409754       0.00000000 NULL
P        6.52803387       5.13041995       7.63934622       0.00000000 NULL
P        2.75043620       6.32772135       4.36028557       0.00000000 NULL
P        6.23736005       5.44441048       5.34857162       0.00000000 NULL
P        7.51170885       8.13566784       5.98215839       0.00000000 NULL
P        6.48449671       6.91096841       2.50466625       0.00000000 NULL
P        5.66482079       3.18635810       1.07370255       0.00000000 NULL
12
Lattice="5.167526704741895 0.5141652903543061 -0.013002914218459284 1.2708386513418775 6.921607943114097 -0.806411633384293 2.2522642228625593 1.00385238303628 8.035574358885906" Properties=species:S:1:pos:R:3:initial_magmoms:R:1:castep_labels:S:1 n_minim_iter=12 pbc="T T T"
P        5.25131192       7.61501629       6.06266536       0.00000000 NULL
P        3.29826159       1.92934659       3.29834371       0.00000000 NULL
P        5.99891797       3.41945227       6.25600999       0.00000000 NULL
P        6.46442829       4.93125138       3.28628156       0.00000000 NULL
P        5.13865254       3.04296412       3.15395321       0.00000000 NULL
P        4.60690126       5.47609765       6.73685555       0.00000000 NULL
P        6.61055804       5.13894393       7.63223456       0.00000000 NULL
P        2.85644606       6.30027884       4.32105155       0.00000000 NULL
P        6.32572576       5.47365199       5.33088826       0.00000000 NULL
P        7.63396121       8.15817298       5.96191982       0.00000000 NULL
P        6.57922758       6.95387858       2.48085099       0.00000000 NULL
P        5.70940419       3.24121935       1.07256712       0.00000000 NULL
12
Lattice="5.156556126322132 0.598135442776368 -0.001143675746031923 1.3793834626193153 6.9050139159836155 -0.8496332632733442 2.292633300374796 0.9810508611357441 8.048036271965122" Properties=species:S:1:pos:R:3:initial_magmoms:R:1:castep_labels:S:1 n_minim_iter=13 pbc="T T T"
P        5.38693703       7.61751841       6.03401127       0.00000000 NULL
P        3.34095265       1.94567666       3.30557899       0.00000000 NULL
P        6.05925995       3.46564511       6.26218479       0.00000000 NULL
P        6.53341680       4.98189657       3.26685258       0.00000000 NULL
P        5.17673139       3.08933609       3.14957019       0.00000000 NULL
P        4.69806504       5.46849932       6.72781657       0.00000000 NULL
P        6.69887299       5.15886944       7.63375946       0.00000000 NULL
P        2.97101146       6.28094594       4.28491974       0.00000000 NULL
P        6.41949317       5.51578336       5.31958824       0.00000000 NULL
P        7.76408942       8.19578093       5.94978734       0.00000000 NULL
P        6.67917445       7.01117707       2.45980146       0.00000000 NULL
P        5.75409548       3.30544771       1.07478463       0.00000000 NULL
12
Lattice="5.147383902667943 0.6867455615952365 0.015293272583651119 1.4942046273184102 6.886352516766864 -0.8905110451303672 2.3420163138320085 0.9615438228607736 8.055247199036511" Properties=species:S:1:pos:R:3:initial_magmoms:R:1:castep_labels:S:1 n_minim_iter=14 pbc="T T T"
P        5.53743638       7.62298193       6.00476791       0.00000000 NULL
P        3.38966594       1.96534557       3.31294481       0.00000000 NULL
P        6.13070752       3.51740073       6.26722367       0.00000000 NULL
P        6.61103140       5.03634141       3.25119675       0.00000000 NULL
P        5.22198813       3.14003462       3.14763340       0.00000000 NULL
P        4.80178795       5.46172224       6.71857868       0.00000000 NULL
P        6.80079841       5.18485453       7.63421604       0.00000000 NULL
P        3.09647391       6.26202419       4.24710241       0.00000000 NULL
P        6.52537447       5.56376451       5.30910432       0.00000000 NULL
P        7.90897647       8.23821321       5.94004037       0.00000000 NULL
P        6.79028060       7.07219241       2.44189396       0.00000000 NULL
P        5.80417844       3.37424921       1.08119662       0.00000000 NULL
12
Lattice="5.147659728469343 0.7560672467713704 0.027025712967060217 1.5848947093019263 6.887268177052377 -0.9190710692141087 2.3820172971595706 0.9541551221717792 8.070659949004758" Properties=species:S:1:pos:R:3:initial_magmoms:R:1:castep_labels:S:1 n_minim_iter=15 pbc="T T T"
P        5.66069188       7.64909262       5.99284653       0.00000000 NULL
P        3.43155399       1.98767683       3.32296166       0.00000000 NULL
P        6.19392869       3.56921368       6.27867364       0.00000000 NULL
P        6.67895741       5.09101914       3.24466566       0.00000000 NULL
P        5.26342184       3.18794110       3.15116305       0.00000000 NULL
P        4.88688979       5.47139661       6.72346206       0.00000000 NULL
P        6.88748295       5.22206980       7.64521974       0.00000000 NULL
P        3.19682721       6.26454022       4.22555939       0.00000000 NULL
P        6.61580616       5.61768562       5.30924146       0.00000000 NULL
P        8.03009544       8.29349245       5.94360337       0.00000000 NULL
P        6.88578580       7.13668596       2.43324824       0.00000000 NULL
P        5.85089937       3.43560014       1.08782975       0.00000000 NULL
12
Lattice="5.116931836980699 0.8920519069373949 0.055256062875823374 1.759175553147274 6.858925484522098 -0.9686012873907726 2.4554685482612175 0.9388366185851809 8.062495716594308" Properties=species:S:1:pos:R:3:initial_magmoms:R:1:castep_labels:S:1 n_minim_iter=16 pbc="T T T"
P        5.88442758       7.67366125       5.94366364       0.00000000 NULL
P        3.50215053       2.02635958       3.33093118       0.00000000 NULL
P        6.29250471       3.66368649       6.27454422       0.00000000 NULL
P        6.77685017       5.17828783       3.21879139       0.00000000 NULL
P        5.31587010       3.27143440       3.14722139       0.00000000 NULL
P        5.03235840       5.46412969       6.70895520       0.00000000 NULL
P        7.02592647       5.27621274       7.63540989       0.00000000 NULL
P        3.38451076       6.24420298       4.16088126       0.00000000 NULL
P        6.76669598       5.70795240       5.28870618       0.00000000 NULL
P        8.23019179       8.37079827       5.93281321       0.00000000 NULL
P        7.04162881       7.23773614       2.41158870       0.00000000 NULL
P        5.91264440       3.54377094       1.10338196       0.00000000 NULL
12
Lattice="5.173015650228756 0.9252018209064866 0.07255849809029626 1.8090233627365444 6.994820999498712 -0.9921107780258523 2.514683608328275 0.9562846813156347 8.123182402760369" Properties=species:S:1:pos:R:3:initial_magmoms:R:1:castep_labels:S:1 n_minim_iter=17 pbc="T T T"
P        6.01153608       7.83965295       5.97599872       0.00000000 NULL
P        3.57041055       2.07016046       3.36489075       0.00000000 NULL
P        6.40196724       3.75323768       6.32639770       0.00000000 NULL
P        6.87812848       5.28698722       3.23666542       0.00000000 NULL
P        5.39014392       3.34675043       3.17685566       0.00000000 NULL
P        5.12068964       5.56202464       6.76650099       0.00000000 NULL
P        7.14836139       5.38570398       7.69939224       0.00000000 NULL
P        3.46799173       6.36780754       4.16677801       0.00000000 NULL
P        6.89154799       5.84148710       5.32830617       0.00000000 NULL
P        8.37109253       8.55015275       5.98785761       0.00000000 NULL
P        7.16037161       7.40157077       2.42929592       0.00000000 NULL
P        6.00168162       3.62506318       1.12680324       0.00000000 NULL
12
Lattice="5.117283670267574 0.9116929191188742 0.07512217837805239 1.7849025972844832 6.912347190814779 -0.9860152262291463 2.491390848558228 0.9372387803491214 8.046379308544003" Properties=species:S:1:pos:R:3:initial_magmoms:R:1:castep_labels:S:1 n_minim_iter=18 pbc="T T T"
P        5.94775695       7.74144535       5.91661278       0.00000000 NULL
P        3.53629082       2.04111307       3.33507332       0.00000000 NULL
P        6.33603914       3.70352000       6.26743509       0.00000000 NULL
P        6.80213224       5.21809678       3.20390621       0.00000000 NULL
P        5.33009927       3.30198913       3.14791768       0.00000000 NULL
P        5.06399223       5.48528226       6.70403835       0.00000000 NULL
P        7.07037291       5.31049375       7.62715389       0.00000000 NULL
P        3.42850551       6.28726508       4.12243865       0.00000000 NULL
P        6.81883863       5.76760516       5.27786875       0.00000000 NULL
P        8.27717519       8.44021820       5.93263413       0.00000000 NULL
P        7.08071514       7.30965053       2.40735609       0.00000000 NULL
P        5.93747460       3.57751986       1.11920812       0.00000000 NULL
12
Lattice="5.119604936225185 0.9161765817521985 0.07738398395451768 1.7910350934285215 6.9198413032028885 -0.9887157828254934 2.4971400679389175 0.9374459854520147 8.042430791703742" Properties=species:S:1:pos:R:3:initial_magmoms:R:1:castep_labels:S:1 n_minim_iter=19 pbc="T T T"
P        5.96126411       7.75287113       5.91066997       0.00000000 NULL
P        3.54332445       2.04370008       3.33507815       0.00000000 NULL
P        6.34548790       3.71095904       6.26442521       0.00000000 NULL
P        6.80926932       5.22538560       3.19919635       0.00000000 NULL
P        5.33444188       3.30768760       3.14721335       0.00000000 NULL
P        5.07052941       5.48814118       6.70224302       0.00000000 NULL
P        7.07993745       5.31657723       7.62414539       0.00000000 NULL
P        3.43746227       6.29367352       4.11512366       0.00000000 NULL
P        6.83035931       5.77817505       5.27452320       0.00000000 NULL
P        8.28817978       8.45194941       5.93092152       0.00000000 NULL
P        7.09071282       7.32158772       2.40540409       0.00000000 NULL
P        5.94473857       3.58397271       1.12048596       0.00000000 NULL
12
Lattice="5.118271960113305 0.9238938338982929 0.08253590370231201 1.8009732676092902 6.9269983370943695 -0.9939588711362315 2.506728522974308 0.9355377586593226 8.024168802739327" Properties=species:S:1:pos:R:3:initial_magmoms:R:1:castep_labels:S:1 n_minim_iter=20 pbc="T T T"
P        5.98272388       7.76663331       5.89010196       0.00000000 NULL
P        3.55448830       2.04565698       3.33132156       0.00000000 NULL
P        6.35807714       3.72093218       6.25030018       0.00000000 NULL
P        6.81558738       5.23308904       3.18450495       0.00000000 NULL
P        5.33668110       3.31461567       3.14210535       0.00000000 NULL
P        5.07760844       5.48529555       6.69037732       0.00000000 NULL
P        7.09114514       5.32081784       7.60845813       0.00000000 NULL
P        3.45176910       6.29846466       4.09360969       0.00000000 NULL
P        6.84647446       5.79244184       5.26077542       0.00000000 NULL
P        8.30035045       8.46461378       5.91993827       0.00000000 NULL
P        7.10265878       7.33676586       2.39810078       0.00000000 NULL
P        5.95302759       3.59226359       1.12206629       0.00000000 NULL
12
Lattice="5.114473180468669 0.9842944121570758 0.12598123891994292 1.8795245691646372 7.004205145370516 -1.0403348684898734 2.5890969477445878 0.9194173510967875 7.865546358767507" Properties=species:S:1:pos:R:3:initial_magmoms:R:1:castep_labels:S:1 n_minim_iter=21 pbc="T T T"
P        6.16905790       7.90400211       5.71000613       0.00000000 NULL
P        3.65329051       2.06008590       3.29987429       0.00000000 NULL
P        6.46989460       3.80645437       6.12526924       0.00000000 NULL
P        6.87114826       5.30443633       3.05141450       0.00000000 NULL
P        5.35818688       3.37459918       3.09976830       0.00000000 NULL
P        5.13448555       5.46331158       6.58728639       0.00000000 NULL
P        7.18721349       5.36048201       7.47289311       0.00000000 NULL
P        3.57001595       6.35185605       3.90752853       0.00000000 NULL
P        6.98682167       5.92323513       5.14042301       0.00000000 NULL
P        8.40091156       8.58399032       5.82090899       0.00000000 NULL
P        7.20588424       7.47629680       2.33078724       0.00000000 NULL
P        6.03240682       3.66535928       1.13270185       0.00000000 NULL
