24
Lattice="3.676630000000002 6.000140922567738e-16 4.4101562097540074e-16 1.02240824090884 12.514745976747657 -1.0276693282310221e-15 1.02240824090884 6.066784607437544 10.945912085773415" Properties=species:S:1:pos:R:3:initial_magmoms:R:1:castep_labels:S:1 n_minim_iter=1 pbc="T T T"
P        1.69958475       4.07276403       6.73920323       0.00000000 NULL
P        1.69958475       7.86874208       0.29523752       0.00000000 NULL
P        3.69481760      12.21497232       2.80286060       0.00000000 NULL
P        3.69481760       8.37296034       9.32497246       0.00000000 NULL
P        1.44967306      10.17205902       4.82441075       0.00000000 NULL
P        1.44967306       9.15074643       6.55816770       0.00000000 NULL
P        5.16887748      16.01552296       8.27017293       0.00000000 NULL
P        5.16887748      14.99729314       9.99869663       0.00000000 NULL
P        3.31575141       8.29602938       3.46157574       0.00000000 NULL
P        3.31575141       7.04931025       5.57797769       0.00000000 NULL
P        4.02127454       7.46269399       1.74044271       0.00000000 NULL
P        4.02127454       5.13995970       5.68346344       0.00000000 NULL
P        1.96383575       5.59532351       9.42036390       0.00000000 NULL
P        1.96383575      10.95188811       0.32718207       0.00000000 NULL
P        2.94298012       5.36194281       7.67905427       0.00000000 NULL
P        2.94298012       9.31573084       0.96719393       0.00000000 NULL
P        0.54582706       5.46906953       2.03691383       0.00000000 NULL
P        0.54582706       4.43281443       3.79603684       0.00000000 NULL
P        2.13076424       6.00396818       0.89060100       0.00000000 NULL
P        2.13076424       3.68950533       4.81958032       0.00000000 NULL
P        2.32855265      14.42873636       3.93424649       0.00000000 NULL
P        2.32855265      10.43568540      10.71275868       0.00000000 NULL
P        3.54856673       8.15297566       7.31896989       0.00000000 NULL
P        3.54856673      10.35379771       3.58290460       0.00000000 NULL
24
Lattice="3.696338468580933 -0.0019257565595333758 -0.0011344147299250271 1.0213338185539271 12.587227277076776 -0.009587616475079322 1.0213338185539274 6.0935357081580435 11.013955012645463" Properties=species:S:1:pos:R:3:initial_magmoms:R:1:castep_labels:S:1 n_minim_iter=2 pbc="T T T"
P        1.70459735       4.09041438       6.78069763       0.00000000 NULL
P        1.70459735       7.91359117       0.29055997       0.00000000 NULL
P        3.70735136      12.28244454       2.81124346       0.00000000 NULL
P        3.70735136       8.41300091       9.37992268       0.00000000 NULL
P        1.45083730      10.22725504       4.84853347       0.00000000 NULL
P        1.45083730       9.19860258       6.59475041       0.00000000 NULL
P        5.18547390      16.10014734       8.31172473       0.00000000 NULL
P        5.18547390      15.07465949      10.05256950       0.00000000 NULL
P        3.32797892       8.33994590       3.47767192       0.00000000 NULL
P        3.32797892       7.08467808       5.60858592       0.00000000 NULL
P        4.03831918       7.50296101       1.74540101       0.00000000 NULL
P        4.03831918       5.16381671       5.71627899       0.00000000 NULL
P        1.96834505       5.62003557       9.47857684       0.00000000 NULL
P        1.96834505      11.01478323       0.32057631       0.00000000 NULL
P        2.95377632       5.38607347       7.72541542       0.00000000 NULL
P        2.95377632       9.36797805       0.96582506       0.00000000 NULL
P        0.54507246       5.49887504       2.04624836       0.00000000 NULL
P        0.54507246       4.45542764       3.81758086       0.00000000 NULL
P        2.13915417       6.03686803       0.89132251       0.00000000 NULL
P        2.13915417       3.70608528       4.84800611       0.00000000 NULL
P        2.33225356      14.50872437       3.94901427       0.00000000 NULL
P        2.33225356      10.48737777      10.77556051       0.00000000 NULL
P        3.56090609       8.19327569       7.36056758       0.00000000 NULL
P        3.56090609      10.40971704       3.59798732       0.00000000 NULL
24
Lattice="3.894033575546833 -0.023033652740454276 -0.01356854521585149 1.0044610703419659 13.311166535591996 -0.10850495663356849 1.004461070341966 6.357963212103795 11.695094341535388" Properties=species:S:1:pos:R:3:initial_magmoms:R:1:castep_labels:S:1 n_minim_iter=3 pbc="T T T"
P        1.75095085       4.26431743       7.19584994       0.00000000 NULL
P        1.75095085       8.36100361       0.24140898       0.00000000 NULL
P        3.82627591      12.95439822       2.89193483       0.00000000 NULL
P        3.82627591       8.80932049       9.92852420       0.00000000 NULL
P        1.45627038      10.77722406       5.08814971       0.00000000 NULL
P        1.45627038       9.67478978       6.95961699       0.00000000 NULL
P        5.34170165      16.94165285       8.72398857       0.00000000 NULL
P        5.34170165      15.84317981      10.58873135       0.00000000 NULL
P        3.44554551       8.77629450       3.63676459       0.00000000 NULL
P        3.44554551       7.43535618       5.91311087       0.00000000 NULL
P        4.20513347       7.90314118       1.79270346       0.00000000 NULL
P        4.20513347       5.39918508       6.04336220       0.00000000 NULL
P        2.00800629       5.86381626      10.06112304       0.00000000 NULL
P        2.00800629      11.64247990       0.25139550       0.00000000 NULL
P        3.05733517       5.62400070       8.18881951       0.00000000 NULL
P        3.05733517       9.88863054       0.94928120       0.00000000 NULL
P        0.53422183       5.79590854       2.13869774       0.00000000 NULL
P        0.53422183       4.68028087       4.03256181       0.00000000 NULL
P        2.22035109       6.36403205       0.89665661       0.00000000 NULL
P        2.22035109       3.86935030       5.13157142       0.00000000 NULL
P        2.36127384      15.30618377       4.09375015       0.00000000 NULL
P        2.36127384      11.00055483      11.40288758       0.00000000 NULL
P        3.67856283       8.59269146       7.77529927       0.00000000 NULL
P        3.67856283      10.96608360       3.74628294       0.00000000 NULL
24
Lattice="3.948229795116987 -0.039264090070429004 -0.023129487427940448 0.9642859265930636 13.48057299101725 -0.11953491944883812 0.9642859265930639 6.430439271511986 11.848611207162959" Properties=species:S:1:pos:R:3:initial_magmoms:R:1:castep_labels:S:1 n_minim_iter=4 pbc="T T T"
P        1.74050324       4.30755922       7.28859227       0.00000000 NULL
P        1.74050324       8.46308223       0.23427124       0.00000000 NULL
P        3.81934484      13.10610040       2.91566201       0.00000000 NULL
P        3.81934484       8.90361406      10.04970692       0.00000000 NULL
P        1.42138377      10.90995962       5.14835430       0.00000000 NULL
P        1.42138377       9.79179352       7.04652754       0.00000000 NULL
P        5.32457932      17.13712707       8.82090351       0.00000000 NULL
P        5.32457932      16.02270581      10.71271961       0.00000000 NULL
P        3.44813237       8.87326955       3.67449159       0.00000000 NULL
P        3.44813237       7.51536445       5.97964029       0.00000000 NULL
P        4.22666903       7.98935217       1.80455002       0.00000000 NULL
P        4.22666903       5.45133915       6.11302302       0.00000000 NULL
P        1.98643589       5.92567405      10.19194618       0.00000000 NULL
P        1.98643589      11.78689007       0.24207962       0.00000000 NULL
P        3.05815871       5.67976562       8.29168621       0.00000000 NULL
P        3.05815871      10.00563521       0.94818871       0.00000000 NULL
P        0.51231083       5.86687583       2.16323868       0.00000000 NULL
P        0.51231083       4.73614826       4.08273600       0.00000000 NULL
P        2.22497837       6.43366990       0.89892169       0.00000000 NULL
P        2.22497837       3.90508983       5.19138151       0.00000000 NULL
P        2.32213263      15.49453431       4.13614176       0.00000000 NULL
P        2.32213263      11.12893914      11.54707650       0.00000000 NULL
P        3.67513593       8.68576477       7.86784431       0.00000000 NULL
P        3.67513593      11.09214653       3.78282555       0.00000000 NULL
24
Lattice="3.973691132114975 -0.05697041007217991 -0.033559834983200004 0.9110963980754762 13.54474106558485 -0.1081726230995612 0.9110963980754765 6.471484018641628 11.899227136524232" Properties=species:S:1:pos:R:3:initial_magmoms:R:1:castep_labels:S:1 n_minim_iter=5 pbc="T T T"
P        1.71310815       4.32805368       7.31837665       0.00000000 NULL
P        1.71310815       8.49906798       0.23775795       0.00000000 NULL
P        3.77797789      13.15835811       2.93185837       0.00000000 NULL
P        3.77797789       8.94311308      10.08756215       0.00000000 NULL
P        1.37003975      10.96569074       5.17654355       0.00000000 NULL
P        1.37003975       9.84346583       7.08160694       0.00000000 NULL
P        5.25839538      17.21208654       8.85985526       0.00000000 NULL
P        5.25839538      16.09311278      10.75939958       0.00000000 NULL
P        3.42067348       8.90543848       3.69044933       0.00000000 NULL
P        3.42067348       7.54491631       6.00004072       0.00000000 NULL
P        4.21329397       8.01510800       1.81141256       0.00000000 NULL
P        4.21329397       5.46982709       6.13222336       0.00000000 NULL
P        1.94491188       5.95626501      10.23483095       0.00000000 NULL
P        1.94491188      11.83922845       0.24804644       0.00000000 NULL
P        3.03226919       5.70263516       8.32434103       0.00000000 NULL
P        3.03226919      10.04528295       0.95236124       0.00000000 NULL
P        0.48377964       5.89580442       2.17618957       0.00000000 NULL
P        0.48377964       4.76149939       4.10175992       0.00000000 NULL
P        2.21036501       6.45269791       0.90188500       0.00000000 NULL
P        2.21036501       3.91690590       5.20658766       0.00000000 NULL
P        2.25825846      15.56899773       4.16363593       0.00000000 NULL
P        2.25825846      11.18908437      11.59887690       0.00000000 NULL
P        3.63897114       8.72258505       7.89823728       0.00000000 NULL
P        3.63897114      11.13657887       3.80029645       0.00000000 NULL
24
Lattice="3.981962554805502 -0.073803459303841 -0.04347576070258484 0.8560991412328005 13.548241615905626 -0.0828042681496652 0.8560991412328008 6.495369191253304 11.889991021825796" Properties=species:S:1:pos:R:3:initial_magmoms:R:1:castep_labels:S:1 n_minim_iter=6 pbc="T T T"
P        1.67930032       4.33655217       7.31170892       0.00000000 NULL
P        1.67930032       8.49735594       0.24842339       0.00000000 NULL
P        3.72271368      13.15470901       2.94512880       0.00000000 NULL
P        3.72271368       8.95295097      10.07793738       0.00000000 NULL
P        1.31504201      10.97761005       5.18677392       0.00000000 NULL
P        1.31504201       9.85819187       7.08707268       0.00000000 NULL
P        5.17282913      17.21993826       8.86699834       0.00000000 NULL
P        5.17282913      16.10316670      10.76280425       0.00000000 NULL
P        3.38019674       8.90173928       3.69489876       0.00000000 NULL
P        3.38019674       7.54701470       5.99464829       0.00000000 NULL
P        4.18309827       8.00762102       1.81673598       0.00000000 NULL
P        4.18309827       5.47085370       6.12309431       0.00000000 NULL
P        1.89682902       5.97016540      10.22672286       0.00000000 NULL
P        1.89682902      11.83887529       0.26413487       0.00000000 NULL
P        2.99520383       5.70828687       8.31673313       0.00000000 NULL
P        2.99520383      10.04136855       0.96099255       0.00000000 NULL
P        0.45450429       5.90081685       2.18270813       0.00000000 NULL
P        0.45450429       4.76963066       4.10298399       0.00000000 NULL
P        2.18734919       6.44361639       0.90620834       0.00000000 NULL
P        2.18734919       3.91628481       5.19654876       0.00000000 NULL
P        2.18749323      15.57856950       4.18368238       0.00000000 NULL
P        2.18749323      11.21125794      11.59753083       0.00000000 NULL
P        3.58915385       8.72879821       7.89346565       0.00000000 NULL
P        3.58915385      11.13541737       3.80804388       0.00000000 NULL
24
Lattice="4.004878456760016 -0.13478245711554102 -0.07939695385195462 0.6549074900402923 13.548954762562477 0.028584340329884092 0.6549074900402926 6.5931399670411475 11.8366168138316" Properties=species:S:1:pos:R:3:initial_magmoms:R:1:castep_labels:S:1 n_minim_iter=7 pbc="T T T"
P        1.55257206       4.37331752       7.27548594       0.00000000 NULL
P        1.55257206       8.48349660       0.29813973       0.00000000 NULL
P        3.51576568      13.13345196       3.00464628       0.00000000 NULL
P        3.51576568       8.99470261      10.03049275       0.00000000 NULL
P        1.11364179      11.01900606       5.22662668       0.00000000 NULL
P        1.11364179       9.91311632       7.10395988       0.00000000 NULL
P        4.85182571      17.24761829       8.89623823       0.00000000 NULL
P        4.85182571      16.14215959      10.77283970       0.00000000 NULL
P        3.22701782       8.88497802       3.71503630       0.00000000 NULL
P        3.22701782       7.55650245       5.97022611       0.00000000 NULL
P        4.06574548       7.97694005       1.84403760       0.00000000 NULL
P        4.06574548       5.47985957       6.08302443       0.00000000 NULL
P        1.71829453       6.02883447      10.18105673       0.00000000 NULL
P        1.71829453      11.82737487       0.33758686       0.00000000 NULL
P        2.85669356       5.73504363       8.27776181       0.00000000 NULL
P        2.85669356      10.02025353       1.00328728       0.00000000 NULL
P        0.34768871       5.91721844       2.20892473       0.00000000 NULL
P        0.34768871       4.80051179       4.10462045       0.00000000 NULL
P        2.10117059       6.40440957       0.92810932       0.00000000 NULL
P        2.10117059       3.91643398       5.15163990       0.00000000 NULL
P        1.92649613      15.60646954       4.26882907       0.00000000 NULL
P        1.92649613      11.29925587      11.58065672       0.00000000 NULL
P        3.40131093       8.75529337       7.86903504       0.00000000 NULL
P        3.40131093      11.12689344       3.84306089       0.00000000 NULL
24
Lattice="4.008096065219764 -0.1861147397376729 -0.10963550983087642 0.4810741785519585 13.648905989906233 0.2173802093480684 0.4810741785519587 6.806722053081097 11.832515530047434" Properties=species:S:1:pos:R:3:initial_magmoms:R:1:castep_labels:S:1 n_minim_iter=8 pbc="T T T"
P        1.43301300       4.48234276       7.27126055       0.00000000 NULL
P        1.43301300       8.53265316       0.39554603       0.00000000 NULL
P        3.32722261      13.22982100       3.14652066       0.00000000 NULL
P        3.32722261       9.16550869      10.04600450       0.00000000 NULL
P        0.94300850      11.17534963       5.33421160       0.00000000 NULL
P        0.94300850      10.08300533       7.18855036       0.00000000 NULL
P        4.55170470      17.47254641       9.04155929       0.00000000 NULL
P        4.55170470      16.37830197      10.89912367       0.00000000 NULL
P        3.08142865       8.95654191       3.79734894       0.00000000 NULL
P        3.08142865       7.66318856       5.99291607       0.00000000 NULL
P        3.94937092       8.02866612       1.93133405       0.00000000 NULL
P        3.94937092       5.58128793       6.08594741       0.00000000 NULL
P        1.55458444       6.18654157      10.18275653       0.00000000 NULL
P        1.55458444      11.90531340       0.47469996       0.00000000 NULL
P        2.73658149       5.85465071       8.28937330       0.00000000 NULL
P        2.73658149      10.08839144       1.10227164       0.00000000 NULL
P        0.25638521       5.99187003       2.26794311       0.00000000 NULL
P        0.25638521       4.88832062       4.14130341       0.00000000 NULL
P        2.02585042       6.41240005       0.98704617       0.00000000 NULL
P        2.02585042       3.97185613       5.13005784       0.00000000 NULL
P        1.69629096      15.78006187       4.45223019       0.00000000 NULL
P        1.69629096      11.54381855      11.64358019       0.00000000 NULL
P        3.22377348       8.90013369       7.90490297       0.00000000 NULL
P        3.22377348      11.22847937       3.95235647       0.00000000 NULL
24
Lattice="3.967539675496969 -0.2028036007643522 -0.11946649790702538 0.41298953487983986 13.71606404766582 0.2256780523392776 0.4129895348798401 6.846535959962656 11.887232179608365" Properties=species:S:1:pos:R:3:initial_magmoms:R:1:castep_labels:S:1 n_minim_iter=9 pbc="T T T"
P        1.36961804       4.49357122       7.30200215       0.00000000 NULL
P        1.36961804       8.56498426       0.39046428       0.00000000 NULL
P        3.22696672      13.27603114       3.16226231       0.00000000 NULL
P        3.22696672       9.20167831      10.07879070       0.00000000 NULL
P        0.88167171      11.24172753       5.35970902       0.00000000 NULL
P        0.88167171      10.13748450       7.23424680       0.00000000 NULL
P        4.38168356      17.57580855       9.08804183       0.00000000 NULL
P        4.38168356      16.46901599      10.96690761       0.00000000 NULL
P        2.99237885       8.97722829       3.82394697       0.00000000 NULL
P        2.99237885       7.69648045       5.99811527       0.00000000 NULL
P        3.86799030       8.06438699       1.95590981       0.00000000 NULL
P        3.86799030       5.62009935       6.10527674       0.00000000 NULL
P        1.47147776       6.20090460      10.23232798       0.00000000 NULL
P        1.47147776      11.95563340       0.46323167       0.00000000 NULL
P        2.67798215       5.86543079       8.33963479       0.00000000 NULL
P        2.67798215      10.13757808       1.08733504       0.00000000 NULL
P        0.22039881       6.02900395       2.27329923       0.00000000 NULL
P        0.22039881       4.91100674       4.17118577       0.00000000 NULL
P        1.98696638       6.40620195       0.97938263       0.00000000 NULL
P        1.98696638       3.96214862       5.12835178       0.00000000 NULL
P        1.59463566      15.86968707       4.48696375       0.00000000 NULL
P        1.59463566      11.61764563      11.70513226       0.00000000 NULL
P        3.11878605       8.94088808       7.93110483       0.00000000 NULL
P        3.11878605      11.27115314       3.97530004       0.00000000 NULL
24
Lattice="3.9042459380423837 -0.1948482834674668 -0.11478022067320846 0.42246743620890126 13.675861568821084 0.34590668605777297 0.42246743620890137 6.9322038813916 11.793786094034266" Properties=species:S:1:pos:R:3:initial_magmoms:R:1:castep_labels:S:1 n_minim_iter=10 pbc="T T T"
P        1.35007012       4.53718431       7.24580923       0.00000000 NULL
P        1.35007012       8.53697798       0.45585078       0.00000000 NULL
P        3.19713801      13.25674798       3.24575079       0.00000000 NULL
P        3.19713801       9.26535286      10.02145207       0.00000000 NULL
P        0.90145366      11.26635612       5.39200917       0.00000000 NULL
P        0.90145366      10.17767476       7.24012981       0.00000000 NULL
P        4.31972002      17.64367352       9.14238523       0.00000000 NULL
P        4.31972002      16.54944593      10.99992101       0.00000000 NULL
P        2.95175173       8.97361429       3.87320353       0.00000000 NULL
P        2.95175173       7.73781031       5.97107618       0.00000000 NULL
P        3.82145855       8.07355047       2.02748395       0.00000000 NULL
P        3.82145855       5.68714323       6.07859444       0.00000000 NULL
P        1.44925677       6.25566731      10.15776537       0.00000000 NULL
P        1.44925677      11.91696524       0.54727517       0.00000000 NULL
P        2.66818749       5.91113686       8.30382734       0.00000000 NULL
P        2.66818749      10.12841639       1.14466986       0.00000000 NULL
P        0.22333439       6.03920764       2.29388089       0.00000000 NULL
P        0.22333439       4.93395476       4.17013295       0.00000000 NULL
P        1.97943276       6.37245565       1.01704430       0.00000000 NULL
P        1.97943276       3.97872985       5.08057860       0.00000000 NULL
P        1.58946255      15.87338632       4.57988075       0.00000000 NULL
P        1.58946255      11.70070796      11.66332432       0.00000000 NULL
P        3.07320464       8.99208619       7.90405440       0.00000000 NULL
P        3.07320464      11.27231307       4.03319328       0.00000000 NULL
24
Lattice="3.9433027161300087 -0.2040937054705442 -0.12022646612554443 0.40185830881881507 13.846221993270012 0.3241734902056332 0.4018583088188152 6.995780908931845 11.953325956104887" Properties=species:S:1:pos:R:3:initial_magmoms:R:1:castep_labels:S:1 n_minim_iter=11 pbc="T T T"
P        1.34778200       4.57662078       7.34170492       0.00000000 NULL
P        1.34778200       8.63996995       0.44385609       0.00000000 NULL
P        3.20192483      13.41061810       3.26436439       0.00000000 NULL
P        3.20192483       9.35622484      10.14700988       0.00000000 NULL
P        0.88678060      11.39736778       5.44853752       0.00000000 NULL
P        0.88678060      10.29062742       7.32731470       0.00000000 NULL
P        4.31908815      17.84295745       9.23937552       0.00000000 NULL
P        4.31908815      16.73088468      11.12720488       0.00000000 NULL
P        2.95991851       9.07164262       3.91187684       0.00000000 NULL
P        2.95991851       7.81915685       6.03806809       0.00000000 NULL
P        3.84329211       8.16492657       2.04004901       0.00000000 NULL
P        3.84329211       5.74242962       6.15242456       0.00000000 NULL
P        1.44011326       6.31088416      10.29316845       0.00000000 NULL
P        1.44011326      12.06216188       0.52993063       0.00000000 NULL
P        2.67709415       5.96299579       8.41334248       0.00000000 NULL
P        2.67709415      10.24934253       1.13693805       0.00000000 NULL
P        0.21155725       6.11104010       2.31543250       0.00000000 NULL
P        0.21155725       4.98762697       4.22251298       0.00000000 NULL
P        1.98878841       6.44448198       1.01654342       0.00000000 NULL
P        1.98878841       4.01320802       5.14381860       0.00000000 NULL
P        1.57176077      16.06139326       4.61536141       0.00000000 NULL
P        1.57176077      11.82288110      11.81056294       0.00000000 NULL
P        3.07771526       9.08424308       7.99845211       0.00000000 NULL
P        3.07771526      11.39955217       4.06803622       0.00000000 NULL
24
Lattice="3.928354876012712 -0.20442338204768354 -0.12042067030123149 0.39657939483043453 13.813253997830609 0.3227694802906574 0.39657939483043453 6.978570979400164 11.925171413085181" Properties=species:S:1:pos:R:3:initial_magmoms:R:1:castep_labels:S:1 n_minim_iter=12 pbc="T T T"
P        1.33993285       4.56470375       7.32415468       0.00000000 NULL
P        1.33993285       8.61884276       0.44194082       0.00000000 NULL
P        3.18593292      13.37681579       3.25597425       0.00000000 NULL
P        3.18593292       9.33250010      10.12151229       0.00000000 NULL
P        0.88090795      11.37075989       5.43533351       0.00000000 NULL
P        0.88090795      10.26617992       7.31044326       0.00000000 NULL
P        4.29498612      17.80200603       9.21751875       0.00000000 NULL
P        4.29498612      16.69191580      11.10198260       0.00000000 NULL
P        2.94509228       9.04799208       3.90345305       0.00000000 NULL
P        2.94509228       7.80032397       6.02146596       0.00000000 NULL
P        3.82668616       8.14519234       2.03601373       0.00000000 NULL
P        3.82668616       5.72933361       6.13712038       0.00000000 NULL
P        1.43023779       6.29360047      10.26853397       0.00000000 NULL
P        1.43023779      12.03223692       0.52675569       0.00000000 NULL
P        2.66527232       5.94629061       8.39427235       0.00000000 NULL
P        2.66527232      10.22456483       1.13157167       0.00000000 NULL
P        0.20844669       6.09735849       2.30958995       0.00000000 NULL
P        0.20844669       4.97588439       4.21337879       0.00000000 NULL
P        1.98048238       6.42675183       1.01298533       0.00000000 NULL
P        1.98048238       4.00150092       5.13003594       0.00000000 NULL
P        1.56062004      16.02348108       4.60428973       0.00000000 NULL
P        1.56062004      11.79481863      11.78277061       0.00000000 NULL
P        3.06144162       9.06174335       7.97825622       0.00000000 NULL
P        3.06144162      11.37098080       4.05814741       0.00000000 NULL
24
Lattice="3.9231449311685958 -0.20598045272416293 -0.12133790145497646 0.3898305420692686 13.8157877667523 0.3204845851056976 0.38983054206926854 6.977800813425978 11.928495202387618" Properties=species:S:1:pos:R:3:initial_magmoms:R:1:castep_labels:S:1 n_minim_iter=13 pbc="T T T"
P        1.33386630       4.56324064       7.32570037       0.00000000 NULL
P        1.33386630       8.61948540       0.43991181       0.00000000 NULL
P        3.17512809      13.37655143       3.25439171       0.00000000 NULL
P        3.17512809       9.33098779      10.12204824       0.00000000 NULL
P        0.87484589      11.37275195       5.43540748       0.00000000 NULL
P        0.87484589      10.26721031       7.31214974       0.00000000 NULL
P        4.27729114      17.80516926       9.21811811       0.00000000 NULL
P        4.27729114      16.69397347      11.10445874       0.00000000 NULL
P        2.93547158       9.04650654       3.90437139       0.00000000 NULL
P        2.93547158       7.80040704       6.01972146       0.00000000 NULL
P        3.81792371       8.14555288       2.03625681       0.00000000 NULL
P        3.81792371       5.72972101       6.13731787       0.00000000 NULL
P        1.42159937       6.29099881      10.27080527       0.00000000 NULL
P        1.42159937      12.03296228       0.52337911       0.00000000 NULL
P        2.65825076       5.94341467       8.39710908       0.00000000 NULL
P        2.65825076      10.22565177       1.12768108       0.00000000 NULL
P        0.20443981       6.09907149       2.30926322       0.00000000 NULL
P        0.20443981       4.97642903       4.21503544       0.00000000 NULL
P        1.97606547       6.42503927       1.01113145       0.00000000 NULL
P        1.97606547       3.99904923       5.12943677       0.00000000 NULL
P        1.55001742      16.02589288       4.60352585       0.00000000 NULL
P        1.55001742      11.79531967      11.78525038       0.00000000 NULL
P        3.05017170       9.06102746       7.97820025       0.00000000 NULL
P        3.05017170      11.37058481       4.05754840       0.00000000 NULL
24
Lattice="3.901975311625737 -0.21330639957116482 -0.1256534323941005 0.3590071093858313 13.841801420906672 0.31642427260375405 0.3590071093858313 6.986860159347226 11.953216136665183" Properties=species:S:1:pos:R:3:initial_magmoms:R:1:castep_labels:S:1 n_minim_iter=14 pbc="T T T"
P        1.30667369       4.56418946       7.33856893       0.00000000 NULL
P        1.30667369       8.63120074       0.43450339       0.00000000 NULL
P        3.12775173      13.39006856       3.25503102       0.00000000 NULL
P        3.12775173       9.33809966      10.13356095       0.00000000 NULL
P        0.84823703      11.39651106       5.44393180       0.00000000 NULL
P        0.84823703      10.28618376       7.32879809       0.00000000 NULL
P        4.19830856      17.84364703       9.23441745       0.00000000 NULL
P        4.19830856      16.72688244      11.13021153       0.00000000 NULL
P        2.89302159       9.05011594       3.91562389       0.00000000 NULL
P        2.89302159       7.81199868       6.01742351       0.00000000 NULL
P        3.78056721       8.15684115       2.04293757       0.00000000 NULL
P        3.78056721       5.74103649       6.14395242       0.00000000 NULL
P        1.38228346       6.28944304      10.28927495       0.00000000 NULL
P        1.38228346      12.04836243       0.51306480       0.00000000 NULL
P        2.62840402       5.93964127       8.41785885       0.00000000 NULL
P        2.62840402      10.24197115       1.11432183       0.00000000 NULL
P        0.18586496       6.11473188       2.31183631       0.00000000 NULL
P        0.18586496       4.98627127       4.22748529       0.00000000 NULL
P        1.95779240       6.42361770       1.00593433       0.00000000 NULL
P        1.95779240       3.99381448       5.13071282       0.00000000 NULL
P        1.50215053      16.05557970       4.60982032       0.00000000 NULL
P        1.50215053      11.81521639      11.80816432       0.00000000 NULL
P        2.99997968       9.07071367       7.98589287       0.00000000 NULL
P        2.99997968      11.38200868       4.06229120       0.00000000 NULL
24
Lattice="3.8736013678659034 -0.2225421327129082 -0.1310939703820329 0.31967962522096105 13.93282803764023 0.38064622740520265 0.31967962522096105 7.087158379609275 12.001698828883567" Properties=species:S:1:pos:R:3:initial_magmoms:R:1:castep_labels:S:1 n_minim_iter=15 pbc="T T T"
P        1.26891904       4.61741321       7.36518683       0.00000000 NULL
P        1.26891904       8.68028318       0.46815148       0.00000000 NULL
P        3.06793131      13.47177901       3.32020761       0.00000000 NULL
P        3.06793131       9.43471665      10.17343256       0.00000000 NULL
P        0.82319656      11.50599122       5.50598470       0.00000000 NULL
P        0.82319656      10.39353057       7.39447251       0.00000000 NULL
P        4.08972411      18.02953315       9.33879337       0.00000000 NULL
P        4.08972411      16.90828610      11.24219678       0.00000000 NULL
P        2.83480313       9.10373788       3.97999271       0.00000000 NULL
P        2.83480313       7.89429265       6.03311934       0.00000000 NULL
P        3.73543509       8.21905647       2.09919487       0.00000000 NULL
P        3.73543509       5.82040162       6.17109660       0.00000000 NULL
P        1.32473702       6.35578231      10.32569293       0.00000000 NULL
P        1.32473702      12.11237444       0.55343348       0.00000000 NULL
P        2.59678958       5.99577459       8.46822979       0.00000000 NULL
P        2.59678958      10.31323944       1.13899998       0.00000000 NULL
P        0.15920611       6.17727981       2.34349054       0.00000000 NULL
P        0.15920611       5.04427878       4.26684724       0.00000000 NULL
P        1.94161853       6.44537796       1.02880182       0.00000000 NULL
P        1.94161853       4.02436407       5.13865975       0.00000000 NULL
P        1.43935775      16.18275621       4.69342051       0.00000000 NULL
P        1.43935775      11.94998802      11.87887119       0.00000000 NULL
P        2.92926855       9.16078457       8.02489416       0.00000000 NULL
P        2.92926855      11.45978457       4.12216423       0.00000000 NULL
24
Lattice="3.767272636517541 -0.2703155002035678 -0.15923605901272775 0.12749740134329152 13.909233385642564 0.3292753759684604 0.12749740134329154 7.030789317347372 12.005965068438547" Properties=species:S:1:pos:R:3:initial_magmoms:R:1:castep_labels:S:1 n_minim_iter=16 pbc="T T T"
P        1.10766865       4.55570249       7.35354005       0.00000000 NULL
P        1.10766865       8.64018086       0.41982277       0.00000000 NULL
P        2.78827271      13.36825436       3.26247397       0.00000000 NULL
P        2.78827271       9.33403468      10.11087323       0.00000000 NULL
P        0.65081589      11.48696472       5.47926557       0.00000000 NULL
P        0.65081589      10.36093743       7.39078381       0.00000000 NULL
P        3.64161506      17.99238140       9.30101759       0.00000000 NULL
P        3.64161506      16.85723575      11.22801493       0.00000000 NULL
P        2.59024438       8.99958082       3.98475073       0.00000000 NULL
P        2.59024438       7.84796190       5.93971273       0.00000000 NULL
P        3.52707192       8.16438268       2.08962356       0.00000000 NULL
P        3.52707192       5.78552590       6.12791655       0.00000000 NULL
P        1.09374568       6.25315931      10.29790426       0.00000000 NULL
P        1.09374568      12.03832069       0.47714632       0.00000000 NULL
P        2.40760961       5.89534421       8.47407487       0.00000000 NULL
P        2.40760961      10.26966607       1.04832591       0.00000000 NULL
P        0.04254025       6.19221858       2.33129758       0.00000000 NULL
P        0.04254025       5.04085619       4.28582410       0.00000000 NULL
P        1.82790818       6.36666136       0.98491995       0.00000000 NULL
P        1.82790818       3.94782367       5.09108362       0.00000000 NULL
P        1.14845352      16.13049121       4.64451350       0.00000000 NULL
P        1.14845352      11.88187539      11.85686677       0.00000000 NULL
P        2.64208386       9.08144605       7.96399325       0.00000000 NULL
P        2.64208386      11.36805712       4.08229448       0.00000000 NULL
24
Lattice="3.867211330531529 -0.27004170752418005 -0.15907477463495656 0.1562206044337265 14.296342941225328 0.4104507874024869 0.15622060443372657 7.289448120034959 12.30519554689486" Properties=species:S:1:pos:R:3:initial_magmoms:R:1:castep_labels:S:1 n_minim_iter=17 pbc="T T T"
P        1.15128517       4.72105446       7.53812047       0.00000000 NULL
P        1.15128517       8.88178032       0.47496719       0.00000000 NULL
P        2.89057521      13.75952279       3.40843589       0.00000000 NULL
P        2.89057521       9.65137454      10.38233462       0.00000000 NULL
P        0.69815024      11.83757023       5.66191318       0.00000000 NULL
P        0.69815024      10.69065189       7.60889557       0.00000000 NULL
P        3.78126290      18.55036925       9.60664782       0.00000000 NULL
P        3.78126290      17.39504881      11.56789343       0.00000000 NULL
P        2.67819165       9.27238768       4.12592220       0.00000000 NULL
P        2.67819165       8.10368511       6.10988503       0.00000000 NULL
P        3.64026125       8.41047992       2.18620652       0.00000000 NULL
P        3.64026125       5.98930211       6.29634271       0.00000000 NULL
P        1.14261539       6.48132378      10.55451570       0.00000000 NULL
P        1.14261539      12.37337111       0.55231060       0.00000000 NULL
P        2.49216139       6.11227306       8.69436931       0.00000000 NULL
P        2.49216139      10.56750544       1.13126847       0.00000000 NULL
P        0.05640770       6.37797139       2.41671550       0.00000000 NULL
P        0.05640770       5.20561377       4.40688303       0.00000000 NULL
P        1.89156152       6.55275279       1.04450665       0.00000000 NULL
P        1.89156152       4.09015236       5.22496095       0.00000000 NULL
P        1.21246979      16.60028156       4.83156934       0.00000000 NULL
P        1.21246979      12.27322282      12.17708552       0.00000000 NULL
P        2.73522940       9.38080597       8.18712502       0.00000000 NULL
P        2.73522940      11.70833833       4.23595920       0.00000000 NULL
24
Lattice="3.8089834634062107 -0.2636209710181206 -0.15529248032917647 0.16188373484322988 14.090565516769699 0.40921369096493715 0.1618837348432299 7.1886111983397605 12.125813847587978" Properties=species:S:1:pos:R:3:initial_magmoms:R:1:castep_labels:S:1 n_minim_iter=18 pbc="T T T"
P        1.13804999       4.65677102       7.42906551       0.00000000 NULL
P        1.13804999       8.75523362       0.47160892       0.00000000 NULL
P        2.85607239      13.56229141       3.36417936       0.00000000 NULL
P        2.85607239       9.51705393      10.23128221       0.00000000 NULL
P        0.69699704      11.66976779       5.58275719       0.00000000 NULL
P        0.69699704      10.54007307       7.50050117       0.00000000 NULL
P        3.73810414      18.29103136       9.47336826       0.00000000 NULL
P        3.73810414      17.15275756      11.40567588       0.00000000 NULL
P        2.64406422       9.14062116       4.07037711       0.00000000 NULL
P        2.64406422       7.99122651       6.02156325       0.00000000 NULL
P        3.59196936       8.29243090       2.15866324       0.00000000 NULL
P        3.59196936       5.90798489       6.20644437       0.00000000 NULL
P        1.13166664       6.39001875      10.40009425       0.00000000 NULL
P        1.13166664      12.19404573       0.54731049       0.00000000 NULL
P        2.46113863       6.02818149       8.56885783       0.00000000 NULL
P        2.46113863      10.41696279       1.11856284       0.00000000 NULL
P        0.05964734       6.28857793       2.38348504       0.00000000 NULL
P        0.05964734       5.13321370       4.34480499       0.00000000 NULL
P        1.86728907       6.45901213       1.03236319       0.00000000 NULL
P        1.86728907       4.03408844       5.14885831       0.00000000 NULL
P        1.20506006      16.36365732       4.76635672       0.00000000 NULL
P        1.20506006      12.10147663      12.00173740       0.00000000 NULL
P        2.70160626       9.25042316       8.06961557       0.00000000 NULL
P        2.70160626      11.54235393       4.17888619       0.00000000 NULL
