14
Lattice="4.156690000000003 5.8273343822097934e-15 8.491183986494137e-15 1.011534752133966 8.423693772290472 1.6620356863184637e-15 1.4088727523448665 2.9408040971610347 8.376428544876454" Properties=species:S:1:pos:R:3:initial_magmoms:R:1:castep_labels:S:1 n_minim_iter=1 pbc="T T T"
P        2.39013249       5.66744610       5.09599799       0.00000000 NULL
P        4.36123061       5.29075959       5.52836745       0.00000000 NULL
P        4.79069331       4.24430491       1.82389444       0.00000000 NULL
P        1.61020371       8.83283410       3.37395757       0.00000000 NULL
P        5.00244270       9.49366230       8.06933527       0.00000000 NULL
P        5.06210752       7.21592126       5.33041234       0.00000000 NULL
P        2.48626622       7.80139767       6.44389099       0.00000000 NULL
P        2.82398202       8.14061323       1.24811633       0.00000000 NULL
P        1.63521361       2.14462763       0.84511882       0.00000000 NULL
P        1.69828582       5.15200352       3.26352022       0.00000000 NULL
P        3.34602221       5.07202002       7.24123485       0.00000000 NULL
P        3.45855858       6.23529500       1.66806188       0.00000000 NULL
P        3.06627087       2.25096120       6.27828062       0.00000000 NULL
P        2.66323800      10.36777032       7.70698354       0.00000000 NULL
14
Lattice="4.165050962641658 0.0005087425532356381 0.00015490683328339298 1.0146003874713818 8.433725810230662 0.00027469579542230136 1.4123787175850449 2.94467127387415 8.394473072364079" Properties=species:S:1:pos:R:3:initial_magmoms:R:1:castep_labels:S:1 n_minim_iter=2 pbc="T T T"
P        2.39579433       5.67461342       5.10728430       0.00000000 NULL
P        4.37109698       5.29739426       5.54035451       0.00000000 NULL
P        4.80075359       4.24983298       1.82793065       0.00000000 NULL
P        1.61466549       8.84346507       3.38143796       0.00000000 NULL
P        5.01380666       9.50558048       8.08672613       0.00000000 NULL
P        5.07324504       7.22550599       5.34198314       0.00000000 NULL
P        2.49260027       7.81111968       6.45818637       0.00000000 NULL
P        2.83050623       8.15077723       1.25120811       0.00000000 NULL
P        1.63883308       2.14738233       0.84726220       0.00000000 NULL
P        1.70260817       5.15835727       3.27049764       0.00000000 NULL
P        3.35352314       5.07852405       7.25706040       0.00000000 NULL
P        3.46634884       6.24282757       1.67230042       0.00000000 NULL
P        3.07303983       2.25421279       6.29171533       0.00000000 NULL
P        2.67026488      10.38065783       7.72401150       0.00000000 NULL
14
Lattice="4.340552104539347 0.011271720182766643 0.003687422066267586 1.079120361705182 8.642165802097034 0.006501068594925544 1.4865965319922836 3.0255102149051347 8.771750973591637" Properties=species:S:1:pos:R:3:initial_magmoms:R:1:castep_labels:S:1 n_minim_iter=3 pbc="T T T"
P        2.51506629       5.82393538       5.34370696       0.00000000 NULL
P        4.57886279       5.43550141       5.79125468       0.00000000 NULL
P        5.01197075       4.36493767       1.91265884       0.00000000 NULL
P        1.70875187       9.06445083       3.53821461       0.00000000 NULL
P        5.25292043       9.75376302       8.45058153       0.00000000 NULL
P        5.30749982       7.42543676       5.58419908       0.00000000 NULL
P        2.62622381       8.01350957       6.75765993       0.00000000 NULL
P        2.96746638       8.36225139       1.31652703       0.00000000 NULL
P        1.71498093       2.20471483       0.89247590       0.00000000 NULL
P        1.79384013       5.29061137       3.41639745       0.00000000 NULL
P        3.51145089       5.21411436       7.58829814       0.00000000 NULL
P        3.63011026       6.39934064       1.76178394       0.00000000 NULL
P        3.21562622       2.32224893       6.57266346       0.00000000 NULL
P        2.81866366      10.64905280       8.08069636       0.00000000 NULL
14
Lattice="4.369208576026635 0.01489269612753743 0.009015811109817588 1.0934319917036983 8.658817863727007 0.008385122181499014 1.5096087779941647 3.0328273933267957 8.808094602073767" Properties=species:S:1:pos:R:3:initial_magmoms:R:1:castep_labels:S:1 n_minim_iter=4 pbc="T T T"
P        2.54262297       5.83830737       5.37005469       0.00000000 NULL
P        4.62378991       5.44553312       5.81816199       0.00000000 NULL
P        5.04865473       4.37654745       1.92468144       0.00000000 NULL
P        1.73235603       9.08059667       3.55319677       0.00000000 NULL
P        5.30372177       9.77594385       8.48619317       0.00000000 NULL
P        5.35509227       7.44967694       5.60942726       0.00000000 NULL
P        2.65869786       8.03000355       6.79054748       0.00000000 NULL
P        2.99126930       8.38288134       1.32734731       0.00000000 NULL
P        1.73074779       2.21001647       0.90061262       0.00000000 NULL
P        1.81727489       5.30202540       3.42858731       0.00000000 NULL
P        3.54641591       5.22604591       7.62374738       0.00000000 NULL
P        3.66167561       6.41019900       1.77840890       0.00000000 NULL
P        3.24693771       2.32977817       6.60195420       0.00000000 NULL
P        2.85875101      10.67402870       8.11921407       0.00000000 NULL
14
Lattice="4.37842567909395 0.01711895410974925 0.01494174884735452 1.1001865814293876 8.644587635007095 0.008880906802452158 1.526249640791822 3.0274839103730824 8.7975856295426" Properties=species:S:1:pos:R:3:initial_magmoms:R:1:castep_labels:S:1 n_minim_iter=5 pbc="T T T"
P        2.55795109       5.83068539       5.36769780       0.00000000 NULL
P        4.64764506       5.43348762       5.81379533       0.00000000 NULL
P        5.06146817       4.37092956       1.92637900       0.00000000 NULL
P        1.74611102       9.06302173       3.54767669       0.00000000 NULL
P        5.32893413       9.76072028       8.47542842       0.00000000 NULL
P        5.37765362       7.44602763       5.60400271       0.00000000 NULL
P        2.67733206       8.01569281       6.78676966       0.00000000 NULL
P        2.99835358       8.37308346       1.33042047       0.00000000 NULL
P        1.73875578       2.20676551       0.90421480       0.00000000 NULL
P        1.83214908       5.29363819       3.42131627       0.00000000 NULL
P        3.56476988       5.21703404       7.61852970       0.00000000 NULL
P        3.67515666       6.39652174       1.78562595       0.00000000 NULL
P        3.26389358       2.32690567       6.59673430       0.00000000 NULL
P        2.88448115      10.65950668       8.11396336       0.00000000 NULL
14
Lattice="4.385410767055045 0.017690635399172618 0.0262903487093886 1.1030449440536818 8.594393250058676 0.011307454417425129 1.5518909656459792 3.00977243175107 8.757181703703115" Properties=species:S:1:pos:R:3:initial_magmoms:R:1:castep_labels:S:1 n_minim_iter=6 pbc="T T T"
P        2.57646452       5.80061401       5.35242668       0.00000000 NULL
P        4.67859422       5.39238890       5.79166639       0.00000000 NULL
P        5.06890621       4.34501494       1.92519169       0.00000000 NULL
P        1.76069077       9.00446415       3.52954165       0.00000000 NULL
P        5.35538062       9.70365433       8.43473192       0.00000000 NULL
P        5.40154271       7.41895985       5.58028109       0.00000000 NULL
P        2.69925072       7.96606711       6.76571269       0.00000000 NULL
P        2.99517859       8.33165691       1.33547518       0.00000000 NULL
P        1.74901875       2.19354713       0.91085820       0.00000000 NULL
P        1.85336138       5.26323082       3.39847517       0.00000000 NULL
P        3.58590423       5.18437599       7.59138497       0.00000000 NULL
P        3.68642211       6.34977441       1.79812384       0.00000000 NULL
P        3.28661970       2.31407388       6.57143301       0.00000000 NULL
P        2.91852029      10.60448041       8.08819620       0.00000000 NULL
14
Lattice="4.390514153576124 -0.003990754663155566 0.04441491980901307 1.0603486790873375 8.454308074582102 0.03198927803915133 1.574805466416872 2.9715403132589615 8.693055706229172" Properties=species:S:1:pos:R:3:initial_magmoms:R:1:castep_labels:S:1 n_minim_iter=7 pbc="T T T"
P        2.57343359       5.71655263       5.34156191       0.00000000 NULL
P        4.70030482       5.27120002       5.75706350       0.00000000 NULL
P        5.04408155       4.25269802       1.92603999       0.00000000 NULL
P        1.73478886       8.84678544       3.51169797       0.00000000 NULL
P        5.33485887       9.53898595       8.37299407       0.00000000 NULL
P        5.39235068       7.32651397       5.54467338       0.00000000 NULL
P        2.68690745       7.83216518       6.74892669       0.00000000 NULL
P        2.92810410       8.20623416       1.36444343       0.00000000 NULL
P        1.75747135       2.15100444       0.93491568       0.00000000 NULL
P        1.86724338       5.17877941       3.35952338       0.00000000 NULL
P        3.58149426       5.09307577       7.55292823       0.00000000 NULL
P        3.66472205       6.21042355       1.84025181       0.00000000 NULL
P        3.30777824       2.27660017       6.52947648       0.00000000 NULL
P        2.91698315      10.45631717       8.07284281       0.00000000 NULL
14
Lattice="4.413591050785503 -0.1045538654028182 0.04422991966213805 0.8621694147781842 8.220627663895986 0.11882630317296093 1.5111072746078265 2.950812992357851 8.532855628756087" Properties=species:S:1:pos:R:3:initial_magmoms:R:1:castep_labels:S:1 n_minim_iter=8 pbc="T T T"
P        2.45645315       5.58843403       5.30900152       0.00000000 NULL
P        4.63106731       5.04286565       5.65683945       0.00000000 NULL
P        4.93360585       4.04487353       1.90616028       0.00000000 NULL
P        1.53613656       8.59894520       3.50575446       0.00000000 NULL
P        5.11226183       9.25739938       8.24021080       0.00000000 NULL
P        5.24041953       7.15086839       5.45624297       0.00000000 NULL
P        2.50737783       7.62612181       6.70809819       0.00000000 NULL
P        2.67635099       7.98023433       1.44811394       0.00000000 NULL
P        1.74745488       2.06452062       0.98391612       0.00000000 NULL
P        1.81004390       5.04233053       3.28697757       0.00000000 NULL
P        3.44899790       4.94819960       7.43608463       0.00000000 NULL
P        3.52781066       5.94817437       1.91491178       0.00000000 NULL
P        3.27909626       2.22153939       6.40067544       0.00000000 NULL
P        2.70026499      10.24473195       8.05568527       0.00000000 NULL
14
Lattice="4.551981622791589 -0.18442767656424244 -0.022420657212333127 0.7339795202472746 8.024916583052098 0.025465397234508844 1.367191726490871 2.7854928115955 8.762284732621215" Properties=species:S:1:pos:R:3:initial_magmoms:R:1:castep_labels:S:1 n_minim_iter=9 pbc="T T T"
P        2.36111205       5.39974850       5.42217348       0.00000000 NULL
P        4.61492189       4.75005371       5.68325304       0.00000000 NULL
P        4.93412346       3.84498969       1.82760724       0.00000000 NULL
P        1.36984950       8.33906751       3.49140844       0.00000000 NULL
P        4.95268333       8.86766108       8.29426932       0.00000000 NULL
P        5.17684399       6.92283323       5.43630865       0.00000000 NULL
P        2.34140457       7.33198382       6.83294319       0.00000000 NULL
P        2.50689203       7.76740537       1.40995470       0.00000000 NULL
P        1.79293490       1.97904491       1.02835662       0.00000000 NULL
P        1.79937594       4.85729383       3.25749485       0.00000000 NULL
P        3.31511069       4.69492943       7.55882807       0.00000000 NULL
P        3.48441332       5.70934168       1.90930446       0.00000000 NULL
P        3.24787872       2.07851979       6.52499949       0.00000000 NULL
P        2.47371959       9.93836704       8.24343674       0.00000000 NULL
14
Lattice="4.413701117405874 -0.18199751400025438 -0.0014391898644884188 0.7052536370362662 7.836640442433688 0.024525517843488397 1.3643232801579537 2.714368946522029 8.325878766892588" Properties=species:S:1:pos:R:3:initial_magmoms:R:1:castep_labels:S:1 n_minim_iter=10 pbc="T T T"
P        2.31135504       5.27014809       5.15890762       0.00000000 NULL
P        4.49638424       4.63196759       5.41557583       0.00000000 NULL
P        4.78768911       3.75223829       1.75510875       0.00000000 NULL
P        1.33841038       8.13997072       3.31695273       0.00000000 NULL
P        4.83282495       8.65252509       7.89375571       0.00000000 NULL
P        5.04012759       6.75875777       5.18017756       0.00000000 NULL
P        2.29520998       7.15268362       6.49571902       0.00000000 NULL
P        2.42469277       7.58431717       1.34915615       0.00000000 NULL
P        1.74575743       1.93159691       0.98356794       0.00000000 NULL
P        1.76068991       4.73943220       3.09626087       0.00000000 NULL
P        3.24643095       4.57647676       7.18849227       0.00000000 NULL
P        3.38214874       5.57206267       1.82737326       0.00000000 NULL
P        3.17562950       2.02662996       6.21532287       0.00000000 NULL
P        2.43106386       9.70149348       7.83676385       0.00000000 NULL
14
Lattice="4.473851965609939 -0.18748865175531812 0.005023302461736612 0.7087634033211233 7.936203264059167 0.014796153808075993 1.3938489690713403 2.736494155467033 8.411704044311858" Properties=species:S:1:pos:R:3:initial_magmoms:R:1:castep_labels:S:1 n_minim_iter=11 pbc="T T T"
P        2.34775593       5.32915957       5.21003860       0.00000000 NULL
P        4.56293604       4.67808778       5.47074001       0.00000000 NULL
P        4.85000480       3.79355306       1.77373869       0.00000000 NULL
P        1.35502621       8.23866562       3.34146939       0.00000000 NULL
P        4.90389600       8.74699291       7.97065513       0.00000000 NULL
P        5.10984105       6.83802745       5.22984664       0.00000000 NULL
P        2.33263462       7.23287146       6.55891753       0.00000000 NULL
P        2.44975155       7.67781004       1.35801385       0.00000000 NULL
P        1.77227885       1.95492796       0.99585416       0.00000000 NULL
P        1.78974276       4.79258519       3.12314415       0.00000000 NULL
P        3.29778038       4.62069091       7.26183961       0.00000000 NULL
P        3.42691527       5.63779099       1.84465376       0.00000000 NULL
P        3.22653291       2.04320213       6.28214682       0.00000000 NULL
P        2.46898807       9.81451338       7.91144156       0.00000000 NULL
14
Lattice="4.472207981863618 -0.1893575826152442 0.007570779551514812 0.7045758772037211 7.937344419538573 0.008732635574126287 1.3971031055059986 2.729771917268804 8.381312955882505" Properties=species:S:1:pos:R:3:initial_magmoms:R:1:castep_labels:S:1 n_minim_iter=12 pbc="T T T"
P        2.34829269       5.32561503       5.19014802       0.00000000 NULL
P        4.56235902       4.67137328       5.44938693       0.00000000 NULL
P        4.84542928       3.79066610       1.76636728       0.00000000 NULL
P        1.35225504       8.23691709       3.32328023       0.00000000 NULL
P        4.90236790       8.73918099       7.93783357       0.00000000 NULL
P        5.10702303       6.83581235       5.20732638       0.00000000 NULL
P        2.33263152       7.22723604       6.53231236       0.00000000 NULL
P        2.44221691       7.67736529       1.35001053       0.00000000 NULL
P        1.77383127       1.95445617       0.99337881       0.00000000 NULL
P        1.79172514       4.78882965       3.10775992       0.00000000 NULL
P        3.29834465       4.61263170       7.23407471       0.00000000 NULL
P        3.42405858       5.63557121       1.83645376       0.00000000 NULL
P        3.22743035       2.03875108       6.26150993       0.00000000 NULL
P        2.46820732       9.81045462       7.87943023       0.00000000 NULL
14
Lattice="4.475641499916782 -0.1922064823300545 0.009310225527465592 0.699638021373083 7.944842004289942 -0.0005848071723729377 1.3997565819503104 2.7219797465919062 8.356989331843936" Properties=species:S:1:pos:R:3:initial_magmoms:R:1:castep_labels:S:1 n_minim_iter=13 pbc="T T T"
P        2.35001973       5.32446442       5.17304635       0.00000000 NULL
P        4.56521151       4.66487046       5.42912276       0.00000000 NULL
P        4.84400846       3.78919481       1.75754256       0.00000000 NULL
P        1.34850418       8.24048828       3.30407836       0.00000000 NULL
P        4.90308242       8.73398990       7.90698861       0.00000000 NULL
P        5.10713102       6.83806682       5.18463188       0.00000000 NULL
P        2.33286639       7.22425641       6.50850572       0.00000000 NULL
P        2.43351748       7.68238605       1.34064755       0.00000000 NULL
P        1.77846607       1.95532758       0.99187203       0.00000000 NULL
P        1.79607939       4.78653296       3.09179749       0.00000000 NULL
P        3.30002703       4.60386457       7.20978557       0.00000000 NULL
P        3.42378234       5.63649321       1.82750356       0.00000000 NULL
P        3.23002291       2.03406076       6.24525821       0.00000000 NULL
P        2.46662085       9.81200651       7.85126151       0.00000000 NULL
14
Lattice="4.482529314052408 -0.19832639819391928 0.006377857394096863 0.688911930713219 7.947911399010246 -0.023431748394162254 1.391852169515351 2.6994877856823125 8.312964597811623" Properties=species:S:1:pos:R:3:initial_magmoms:R:1:castep_labels:S:1 n_minim_iter=14 pbc="T T T"
P        2.34639007       5.31309934       5.14006908       0.00000000 NULL
P        4.56275081       4.64102135       5.38262179       0.00000000 NULL
P        4.83526041       3.77904782       1.73168662       0.00000000 NULL
P        1.33425768       8.23425277       3.26251744       0.00000000 NULL
P        4.89146496       8.70562531       7.84044498       0.00000000 NULL
P        5.09766095       6.83385579       5.13145168       0.00000000 NULL
P        2.32280985       7.20400332       6.46107051       0.00000000 NULL
P        2.40814659       7.68052106       1.31880113       0.00000000 NULL
P        1.79016966       1.95442032       0.98939119       0.00000000 NULL
P        1.80385352       4.77102577       3.05550346       0.00000000 NULL
P        3.29116932       4.57331703       7.16011991       0.00000000 NULL
P        3.42041422       5.62859535       1.80517735       0.00000000 NULL
P        3.22450423       2.02164522       6.21392510       0.00000000 NULL
P        2.44953071       9.79984114       7.79757045       0.00000000 NULL
14
Lattice="4.481265623804597 -0.20248034736523826 -0.024702363340406788 0.6801862710257136 7.88441566929046 -0.04492440202304425 1.3258531227638415 2.6624145963310304 8.27412207584486" Properties=species:S:1:pos:R:3:initial_magmoms:R:1:castep_labels:S:1 n_minim_iter=15 pbc="T T T"
P        2.31090282       5.26494156       5.11061083       0.00000000 NULL
P        4.51980192       4.57958503       5.30908145       0.00000000 NULL
P        4.79796218       3.73809316       1.67613520       0.00000000 NULL
P        1.29482720       8.16329488       3.22027276       0.00000000 NULL
P        4.82227674       8.60557447       7.75539322       0.00000000 NULL
P        5.04341825       6.79150039       5.04955780       0.00000000 NULL
P        2.26762695       7.12601760       6.41489567       0.00000000 NULL
P        2.35387908       7.61704961       1.29832576       0.00000000 NULL
P        1.80893117       1.94119570       0.98913436       0.00000000 NULL
P        1.80518816       4.70837593       3.00574154       0.00000000 NULL
P        3.22884804       4.49695846       7.09918763       0.00000000 NULL
P        3.40369616       5.57546910       1.77135540       0.00000000 NULL
P        3.16743008       2.00846357       6.17738538       0.00000000 NULL
P        2.37432733       9.72160298       7.75706067       0.00000000 NULL
