9
Lattice="6.080833877464876 0.0 0.0 0.0 6.330659796977928 4.59081102698824e-16 0.0 -3.1653298984889644 5.482512206899723" Properties=species:S:1:pos:R:3:initial_magmoms:R:1:castep_labels:S:1:forces:R:3 n_minim_iter=1 energy=-46.063184321291 stress="0.0005804226616494137 -0.0 0.0 -0.0 0.004715258940356302 0.0 0.0 0.0 0.004715211558914536" free_energy=-46.063184321291 pbc="T T T"
P        0.32754185       0.23290431       3.14649782       0.00000000 NULL       0.11982700       0.49444600      -0.16210500
P        2.35448648      -0.55683501       3.70756226       0.00000000 NULL       0.11982800      -0.38760900      -0.34715200
P        4.38143110       0.32393071       4.11096435       0.00000000 NULL       0.11982800      -0.10683700       0.50925500
P        0.21344754      -0.82894085       1.21567351       0.00000000 NULL      -0.00474800      -0.23501800       0.00453200
P        2.24039217      -1.69805533       5.59255929       0.00000000 NULL      -0.00474800       0.12143500       0.20126800
P        4.26733679       2.52699619       4.15679162       0.00000000 NULL      -0.00474700       0.11358500      -0.20580100
P        0.03055301       1.14094977       0.19744729       0.00000000 NULL      -0.11508000      -0.00078000       0.31257800
P        2.05749764       2.76584938       4.39569708       0.00000000 NULL      -0.11508000       0.27108900      -0.15561400
P        4.08444227       5.58919055       0.88936784       0.00000000 NULL      -0.11507900      -0.27031100      -0.15696100
9
Lattice="6.072749313867457 0.0 0.0 0.0 6.262607076394127 4.825751467157127e-16 0.0 -3.1313035381970638 5.423576822077505" Properties=species:S:1:pos:R:3:initial_magmoms:R:1:castep_labels:S:1:forces:R:3 n_minim_iter=2 energy=-46.082287919567 stress="-0.005971627983678615 -0.0 -0.0 -0.0 -0.003248339894478011 -4.8481237791081036e-08 -0.0 -4.8481237791081036e-08 -0.003248339894478011" free_energy=-46.082287919567 pbc="T T T"
P        0.32840602       0.23571282       3.11093230       0.00000000 NULL       0.14301100       0.57855800      -0.03630500
P        2.35265580      -0.55501355       3.66397738       0.00000000 NULL       0.14300900      -0.32072200      -0.48289100
P        4.37690557       0.31930073       4.07224396       0.00000000 NULL       0.14300800      -0.25783800       0.51920000
P        0.21311227      -0.82255496       1.20265407       0.00000000 NULL       0.04865600      -0.53224900      -0.00021600
P        2.23736204      -1.67849708       5.53460328       0.00000000 NULL       0.04865500       0.26594100       0.46104700
P        4.26161181       2.50105204       4.10989629       0.00000000 NULL       0.04865400       0.26631100      -0.46083100
P        0.02926424       1.12867653       0.19868301       0.00000000 NULL      -0.19166400       0.21671200       0.27261000
P        2.05351401       2.73902981       4.34677277       0.00000000 NULL      -0.19166500       0.12773000      -0.32398400
P        4.07776379       5.52620427       0.87812105       0.00000000 NULL      -0.19166600      -0.34444300       0.05137100
9
Lattice="6.265721027802646 0.0 0.0 0.0 6.122611323504555 1.156713824220837e-15 0.0 -3.0613056617522787 5.3023369436532075" Properties=species:S:1:pos:R:3:initial_magmoms:R:1:castep_labels:S:1:forces:R:3 n_minim_iter=3 energy=-46.140671626951 stress="0.01567798942270649 -0.0 -0.0 -0.0 -0.0048609397072163435 -4.9161480498157745e-08 -0.0 -4.9161480498157745e-08 -0.004860890545735845" free_energy=-46.140671626951 pbc="T T T"
P        0.34847269       0.26725739       3.03366990       0.00000000 NULL       0.11917400       0.51682700       0.25446400
P        2.43704637      -0.56769916       3.55405031       0.00000000 NULL       0.11917300      -0.03804300      -0.57481400
P        4.52562004       0.30044177       4.01695369       0.00000000 NULL       0.11917400      -0.47878400       0.32035400
P        0.22115955      -0.82896087       1.17595063       0.00000000 NULL      -0.31847400      -0.79202400      -0.13944200
P        2.30973322      -1.62842211       5.43226280       0.00000000 NULL      -0.31847200       0.27525600       0.75563200
P        4.39830690       2.45738298       3.99646046       0.00000000 NULL      -0.31847300       0.51677000      -0.61618900
P        0.01928785       1.10955935       0.21487305       0.00000000 NULL       0.19929900       0.28405100       0.21785800
P        2.10786153       2.69261151       4.23399384       0.00000000 NULL       0.19929900       0.04664400      -0.35492600
P        4.19643521       5.38174613       0.85347006       0.00000000 NULL       0.19930000      -0.33069600       0.13706200
9
Lattice="6.225433675592145 0.0 0.0 0.0 5.864081096112452 1.5079837557414088e-15 0.0 -2.9320405480562273 5.07844319908548" Properties=species:S:1:pos:R:3:initial_magmoms:R:1:castep_labels:S:1:forces:R:3 n_minim_iter=4 energy=-46.502953043997 stress="0.0031516335150530116 -0.0 -0.0 -0.0 -0.008290365758405747 -0.0 -0.0 -0.0 -0.00829031181978663" free_energy=-46.502953043997 pbc="T T T"
P        0.38501408       0.39885801       2.88774015       0.00000000 NULL       0.02455100       0.02599200      -0.21544900
P        2.46015863      -0.63061322       3.28915196       0.00000000 NULL       0.02455100      -0.19958000       0.08521500
P        4.53530319       0.23175522       3.97999429       0.00000000 NULL       0.02455200       0.17358900       0.13023500
P        0.21179306      -0.90505728       1.12227007       0.00000000 NULL      -0.30681800      -0.59259600       0.08709000
P        2.28693762      -1.50759752       5.30111076       0.00000000 NULL      -0.30681700       0.37172500       0.46966100
P        4.36208218       2.41265480       3.73350557       0.00000000 NULL      -0.30681500       0.22087500      -0.55675000
P       -0.01167371       1.09311135       0.28345453       0.00000000 NULL       0.28226600       0.23786500       0.46101800
P        2.06347085       2.63096370       3.99005373       0.00000000 NULL       0.28226400       0.28031700      -0.43650900
P        4.13861541       5.07204660       0.80493494       0.00000000 NULL       0.28226600      -0.51818700      -0.02451100
9
Lattice="6.239210014885768 0.0 0.0 0.0 5.6785352113948 8.560036313990691e-16 0.0 -2.839267605697401 4.917755749352336" Properties=species:S:1:pos:R:3:initial_magmoms:R:1:castep_labels:S:1:forces:R:3 n_minim_iter=5 energy=-46.930617608407 stress="-0.0210511735230427 -0.0 -0.0 -0.0 -0.011844703641711685 -0.0 -0.0 -0.0 -0.011844646247629835" free_energy=-46.930617608407 pbc="T T T"
P        0.42408750       0.50693002       2.68799469       0.00000000 NULL      -0.20109700      -0.14445000       0.12072600
P        2.50382417      -0.76486093       3.13474413       0.00000000 NULL      -0.20109800       0.17677600       0.06473700
P        4.58356084       0.25793091       4.01277268       0.00000000 NULL      -0.20109800      -0.03232600      -0.18546000
P        0.15146627      -1.01975159       1.11407683       0.00000000 NULL       0.18106800      -0.33436100      -0.11460400
P        2.23120294      -1.36457298       5.24384813       0.00000000 NULL       0.18106900       0.06793200       0.34686400
P        4.31093961       2.38432457       3.47758655       0.00000000 NULL       0.18106900       0.26642800      -0.23225900
P        0.01087464       1.08868983       0.45022466       0.00000000 NULL       0.02002900       0.12216200       0.40490100
P        2.09061131       2.68482868       3.74981037       0.00000000 NULL       0.02002900       0.28957400      -0.30824700
P        4.17034799       4.74428431       0.71772073       0.00000000 NULL       0.02002900      -0.41173500      -0.09665800
9
Lattice="6.321655176651841 0.0 0.0 0.0 5.620505926483315 7.540485665902802e-16 0.0 -2.8102529632416586 4.867500914455546" Properties=species:S:1:pos:R:3:initial_magmoms:R:1:castep_labels:S:1:forces:R:3 n_minim_iter=6 energy=-47.011050620428 stress="-0.024218618961629818 0.0 -0.0 0.0 -0.01657788298966445 -0.0 -0.0 -0.0 -0.01657788298966445" free_energy=-47.011050620428 pbc="T T T"
P        0.41119965       0.52050142       2.66369933       0.00000000 NULL      -0.22699200      -0.31955400       0.33619500
P        2.51841804      -0.76367239       3.08488380       0.00000000 NULL      -0.22699200       0.45093000       0.10864500
P        4.62563643       0.24317097       3.98641870       0.00000000 NULL      -0.22699200      -0.13137600      -0.44483900
P        0.14735491      -1.04757466       1.08350854       0.00000000 NULL       0.27054400      -0.28271400       0.05922900
P        2.25457330      -1.34811972       5.23297292       0.00000000 NULL       0.27054300       0.19265100       0.21522200
P        4.36179169       2.39569438       3.41852038       0.00000000 NULL       0.27054300       0.09006300      -0.27445200
P        0.03562313       1.07142688       0.51319208       0.00000000 NULL      -0.04355100       0.32717400       0.02962100
P        2.14284152       2.71897690       3.68302198       0.00000000 NULL      -0.04355100      -0.13793400      -0.29815100
P        4.25005991       4.64035511       0.67128686       0.00000000 NULL      -0.04355200      -0.18924000       0.26853000
9
Lattice="6.6494684964878665 0.0 0.0 0.0 5.505977468054587 -3.8397930197755764e-17 0.0 -2.7529887340272934 4.76831636" Properties=species:S:1:pos:R:3:initial_magmoms:R:1:castep_labels:S:1:forces:R:3 n_minim_iter=7 energy=-47.367160908121 stress="-0.022666481930497393 -0.0 -0.0 -0.0 -0.007207375771846896 -5.7281407138915444e-08 -0.0 -5.7281407138915444e-08 -0.007207375771846896" free_energy=-47.367160908121 pbc="T T T"
P        0.25102488       0.43059827       2.73765597       0.00000000 NULL       0.03915300      -0.15922600       0.56843000
P        2.46751438      -0.59740825       3.02657934       0.00000000 NULL       0.03915200       0.57189100      -0.14632100
P        4.68400388       0.16680999       3.77239742       0.00000000 NULL       0.03915200      -0.41266200      -0.42211200
P        0.19504228      -1.08970264       1.09888728       0.00000000 NULL      -0.01624600      -0.00613800      -0.25343900
P        2.41153178      -1.25647311       5.16258290       0.00000000 NULL      -0.01624900      -0.21641400       0.13203700
P        4.62802127       2.34617576       3.27516255       0.00000000 NULL      -0.01624900       0.22255200       0.12140500
P        0.17892391       1.08618670       0.64564312       0.00000000 NULL      -0.02290300       0.13027300      -0.40708400
P        2.39541341       2.76903873       3.50482953       0.00000000 NULL      -0.02290400      -0.41768600       0.09072100
P        4.61190291       4.40374078       0.61784372       0.00000000 NULL      -0.02290600       0.28741100       0.31636300
9
Lattice="6.997561280261609 0.0 0.0 0.0 5.393435743464251 -6.151986676230495e-16 0.0 -2.696717871732125 4.670852367519059" Properties=species:S:1:pos:R:3:initial_magmoms:R:1:castep_labels:S:1:forces:R:3 n_minim_iter=8 energy=-47.56200460434 stress="-0.01866615577307807 0.0 -0.0 0.0 -0.0010989201358940358 -0.0 -0.0 -0.0 -0.0010990335903784353" free_energy=-47.56200460434 pbc="T T T"
P        0.20064372       0.37962207       2.76208228       0.00000000 NULL       0.10148300      -0.17870300       0.37292900
P        2.53316415      -0.49449549       2.96104887       0.00000000 NULL       0.10148200       0.41231700      -0.03170500
P        4.86568457       0.11487342       3.61857359       0.00000000 NULL       0.10148200      -0.23361800      -0.34122800
P        0.16795046      -1.09851231       1.07249199       0.00000000 NULL       0.20845700      -0.00929200      -0.17945800
P        2.50047089      -1.21865641       5.08594595       0.00000000 NULL       0.20845500      -0.15076800       0.09778100
P        4.83299131       2.31716873       3.18326681       0.00000000 NULL       0.20845500       0.16006300       0.08167800
P        0.28911552       1.08013257       0.67610812       0.00000000 NULL      -0.30993700       0.17056300      -0.43391000
P        2.62163595       2.74217840       3.39737606       0.00000000 NULL      -0.30993700      -0.46105900       0.06924000
P        4.95415638       4.26784265       0.59736819       0.00000000 NULL      -0.30993900       0.29049700       0.36467300
9
Lattice="7.1827912584274545 0.0 0.0 0.0 5.26351483309792 5.346563453098772e-16 0.0 -2.6317574165489606 4.558337558659014" Properties=species:S:1:pos:R:3:initial_magmoms:R:1:castep_labels:S:1:forces:R:3 n_minim_iter=9 energy=-47.645584354511 stress="-0.0073037619949149375 -0.0 -0.0 -0.0 -0.006233758251479398 5.80262333750293e-08 -0.0 5.80262333750293e-08 -0.006233758251479398" free_energy=-47.645584354511 pbc="T T T"
P        0.19165834       0.31956814       2.73715456       0.00000000 NULL       0.12877400      -0.15839600       0.41213100
P        2.58592209      -0.42109610       2.91300615       0.00000000 NULL       0.12877400       0.43611100      -0.06888900
P        4.98018584       0.10152797       3.46651441       0.00000000 NULL       0.12877300      -0.27771500      -0.34323600
P        0.16751692      -1.11425691       1.03260861       0.00000000 NULL       0.03793600       0.01313800      -0.28158100
P        2.56178068      -1.18036367       5.00700804       0.00000000 NULL       0.03793500      -0.25042700       0.12940900
P        4.95604443       2.29462058       3.07705847       0.00000000 NULL       0.03793400       0.23728700       0.15216900
P        0.31594509       1.07983669       0.67548599       0.00000000 NULL      -0.16670800       0.17976600      -0.40818800
P        2.71020885       2.67682710       3.28542856       0.00000000 NULL      -0.16670800      -0.44338000       0.04841400
P        5.10447260       4.13860846       0.59742302       0.00000000 NULL      -0.16670900       0.26361500       0.35977200
9
Lattice="7.264926138012079 0.0 0.0 0.0 5.259183675790248 1.2948691562685564e-15 0.0 -2.629591837895125 4.554586666402785" Properties=species:S:1:pos:R:3:initial_magmoms:R:1:castep_labels:S:1:forces:R:3 n_minim_iter=10 energy=-47.757469841883 stress="0.006314627757255235 -0.0 -0.0 -0.0 0.007021558974503443 -0.0 -0.0 -0.0 0.007021558974503443" free_energy=-47.757469841883 pbc="T T T"
P        0.23169544       0.23225016       2.77573064       0.00000000 NULL       0.01617200      -0.13538200      -0.07128600
P        2.65333748      -0.34186367       2.96558681       0.00000000 NULL       0.01617200       0.00595300       0.15288800
P        5.07497953       0.10961351       3.36785589       0.00000000 NULL       0.01617200       0.12942600      -0.08160000
P        0.16505060      -1.11196969       0.96177250       0.00000000 NULL      -0.18199900       0.15042700      -0.11365200
P        2.58669265      -1.24068757       5.03669442       0.00000000 NULL      -0.18200000      -0.17363900      -0.07344900
P        5.00833469       2.35265727       3.11070642       0.00000000 NULL      -0.18200000       0.02321300       0.18710000
P        0.28609534       1.09496242       0.68604170       0.00000000 NULL       0.16582800       0.03151000      -0.04414800
P        2.70773739       2.67624017       3.26330055       0.00000000 NULL       0.16582700      -0.05398700      -0.00521400
P        5.12937943       4.11757293       0.60524442       0.00000000 NULL       0.16582700       0.02247800       0.04936200
9
Lattice="7.370583043202462 0.0 0.0 0.0 5.1818593878550345 2.0052741284623223e-15 0.0 -2.590929693927518 4.487621868721349" Properties=species:S:1:pos:R:3:initial_magmoms:R:1:castep_labels:S:1:forces:R:3 n_minim_iter=11 energy=-47.803999835299 stress="0.013366963491235619 0.0 0.0 0.0 0.0019820628168806427 -5.8344013213253346e-08 0.0 -5.8344013213253346e-08 0.0019821211608938554" free_energy=-47.803999835299 pbc="T T T"
P        0.24289797       0.17558046       2.74566509       0.00000000 NULL      -0.00186800      -0.08790500      -0.02283700
P        2.69975899      -0.30090421       2.96273219       0.00000000 NULL      -0.00186800       0.02417600       0.08754900
P        5.15662000       0.12532375       3.26684646       0.00000000 NULL      -0.00186800       0.06373100      -0.06471000
P        0.14504560      -1.09470673       0.88997644       0.00000000 NULL      -0.17879300       0.17919400      -0.07845100
P        2.60190661      -1.27283412       4.99067749       0.00000000 NULL      -0.17879300      -0.15753700      -0.11596400
P        5.05876763       2.36754086       3.09458981       0.00000000 NULL      -0.17879200      -0.02165900       0.19441500
P        0.30482860       1.14333723       0.68181004       0.00000000 NULL       0.18066100      -0.12741600       0.03231300
P        2.76168962       2.60972589       3.15655777       0.00000000 NULL       0.18066100       0.09169100       0.09419000
P        5.21855063       4.01972596       0.64925407       0.00000000 NULL       0.18066000       0.03572600      -0.12650500
9
Lattice="7.323270171113923 0.0 0.0 0.0 5.19766333120661 2.5940829786107532e-15 0.0 -2.5988316656033064 4.501308485143784" Properties=species:S:1:pos:R:3:initial_magmoms:R:1:castep_labels:S:1:forces:R:3 n_minim_iter=12 energy=-47.825786208332 stress="0.005634208395350323 0.0 -0.0 0.0 0.004446784457883058 -5.8364410787282566e-08 -0.0 -5.8364410787282566e-08 0.004446726093472271" free_energy=-47.825786208332 pbc="T T T"
P        0.24877599       0.16134178       2.74343988       0.00000000 NULL      -0.01852300      -0.03802200      -0.01391600
P        2.68986605      -0.30361393       2.98986247       0.00000000 NULL      -0.01852300       0.00696000       0.03988500
P        5.13095611       0.14227215       3.26931463       0.00000000 NULL      -0.01852300       0.03106200      -0.02597200
P        0.13418274      -1.07681982       0.86856246       0.00000000 NULL      -0.01214000       0.11423900      -0.05309300
P        2.57527279      -1.30822459       4.99958058       0.00000000 NULL      -0.01214100      -0.10309900      -0.07238600
P        5.01636285       2.38504442       3.13447393       0.00000000 NULL      -0.01214100      -0.01114100       0.12548100
P        0.30536559       1.15997845       0.67573941       0.00000000 NULL       0.03066400      -0.13094500       0.06538200
P        2.74645565       2.60404994       3.15886798       0.00000000 NULL       0.03066400       0.12209300       0.08070900
P        5.18754571       4.03246661       0.66670110       0.00000000 NULL       0.03066300       0.00885100      -0.14609200
9
Lattice="7.27211805604222 0.0 0.0 0.0 5.183965326820949 3.185067498635408e-15 0.0 -2.5919826634104757 4.489445665364651" Properties=species:S:1:pos:R:3:initial_magmoms:R:1:castep_labels:S:1:forces:R:3 n_minim_iter=13 energy=-47.838545247616 stress="0.0013423738440901554 -0.0 0.0 -0.0 0.0015110642496924 -5.908595642810667e-08 0.0 -5.908595642810667e-08 0.001511182421605256" free_energy=-47.838545247616 pbc="T T T"
P        0.24426570       0.13292896       2.74711368       0.00000000 NULL      -0.00663700      -0.01566800      -0.02537900
P        2.66830505      -0.27937691       3.00076897       0.00000000 NULL      -0.00663800      -0.01414600       0.02626100
P        5.09234440       0.14644795       3.23100869       0.00000000 NULL      -0.00663800       0.02981400      -0.00087900
P        0.14118220      -1.06325585       0.83580567       0.00000000 NULL      -0.03384300       0.00691600      -0.00674100
P        2.56522155      -1.33652580       4.99234941       0.00000000 NULL      -0.03384300      -0.00929500      -0.00262200
P        4.98926090       2.39978165       3.15073626       0.00000000 NULL      -0.03384300       0.00237700       0.00936300
P        0.29806740       1.16261391       0.68506812       0.00000000 NULL       0.04048100      -0.05647300       0.06080800
P        2.72210675       2.60396210       3.14005843       0.00000000 NULL       0.04048100       0.08089700       0.01850500
P        5.14614610       4.00937198       0.66431912       0.00000000 NULL       0.04048100      -0.02442300      -0.07931500
9
Lattice="7.281651038775543 0.0 0.0 0.0 5.170858059071965 3.582512929244419e-15 0.0 -2.5854290295359843 4.478094438519828" Properties=species:S:1:pos:R:3:initial_magmoms:R:1:castep_labels:S:1:forces:R:3 n_minim_iter=14 energy=-47.841618817308 stress="0.0001471435017239407 0.0 -0.0 0.0 -0.0008498856830729829 0.0 -0.0 0.0 -0.0008500042993581292" free_energy=-47.841618817308 pbc="T T T"
P        0.24731380       0.11297842       2.75264761       0.00000000 NULL      -0.02422300      -0.01264200      -0.02977200
P        2.67453082      -0.25805548       3.00392846       0.00000000 NULL      -0.02422300      -0.01946200       0.02583300
P        5.10174783       0.14507707       3.19961282       0.00000000 NULL      -0.02422300       0.03210400       0.00393700
P        0.13545427      -1.06619257       0.82539655       0.00000000 NULL       0.01862400      -0.04678900      -0.00357700
P        2.56267129      -1.33751836       4.98874602       0.00000000 NULL       0.01862300       0.02029700       0.04231200
P        4.98988830       2.40371094       3.14204631       0.00000000 NULL       0.01862300       0.02649300      -0.03873400
P        0.30164345       1.15239946       0.69719611       0.00000000 NULL       0.00559900       0.01679200       0.03631700
P        2.72886046       2.61301884       3.13148917       0.00000000 NULL       0.00559900       0.02305400      -0.03270300
P        5.15607747       3.99086878       0.64940916       0.00000000 NULL       0.00559900      -0.03984800      -0.00361300
9
Lattice="7.282899183968861 0.0 0.0 0.0 5.165776524528792 3.5505893975186432e-15 0.0 -2.582888262264398 4.473693700515232" Properties=species:S:1:pos:R:3:initial_magmoms:R:1:castep_labels:S:1:forces:R:3 n_minim_iter=15 energy=-47.843612735374 stress="-0.00016261798703518402 -0.0 -0.0 -0.0 -0.0008212891614129882 5.9414682877305095e-08 -0.0 5.9414682877305095e-08 -0.0008212891614129882" free_energy=-47.843612735374 pbc="T T T"
P        0.23047434       0.09045107       2.75358987       0.00000000 NULL       0.03080800      -0.02265600      -0.04444800
P        2.65810740      -0.24343502       3.01856585       0.00000000 NULL       0.03080800      -0.02716600       0.04184400
P        5.08574046       0.15298396       3.17523169       0.00000000 NULL       0.03080800       0.04982100       0.00260400
P        0.14302553      -1.07682101       0.80609038       0.00000000 NULL      -0.00181600      -0.03932700       0.02643400
P        2.57065859      -1.34638301       5.00320286       0.00000000 NULL      -0.00181700       0.04255500       0.02084000
P        4.99829165       2.42320402       3.13809416       0.00000000 NULL      -0.00181800      -0.00322700      -0.04727600
P        0.31102826       1.14501953       0.70795640       0.00000000 NULL      -0.02899100       0.01319200       0.03472400
P        2.73866132       2.62348672       3.12809951       0.00000000 NULL      -0.02899100       0.02347800      -0.02878600
P        5.16629438       3.98015854       0.63763780       0.00000000 NULL      -0.02899200      -0.03667000      -0.00593700
9
Lattice="7.273780016819965 0.0 0.0 0.0 5.166166278844312 2.8636573639976222e-15 0.0 -2.583083139422157 4.474031237653708" Properties=species:S:1:pos:R:3:initial_magmoms:R:1:castep_labels:S:1:forces:R:3 n_minim_iter=16 energy=-47.846677212285 stress="-0.00047310558990911394 -0.0 -0.0 -0.0 -0.00043254008672605947 -0.0 -0.0 -0.0 -0.00043254008672605947" free_energy=-47.846677212285 pbc="T T T"
P        0.23496683       0.06622388       2.75339215       0.00000000 NULL      -0.00087100      -0.01633100      -0.04192300
P        2.65956017      -0.23168753       3.03998360       0.00000000 NULL      -0.00087100      -0.02814000       0.03510400
P        5.08415351       0.16546365       3.15468673       0.00000000 NULL      -0.00087100       0.04447200       0.00681800
P        0.14354228      -1.09250879       0.79640395       0.00000000 NULL      -0.01149900      -0.00202200       0.02073700
P        2.56813562      -1.34712270       5.02196963       0.00000000 NULL      -0.01149900       0.01897000      -0.00861700
P        4.99272896       2.43963149       3.12968890       0.00000000 NULL      -0.01149900      -0.01694800      -0.01212000
P        0.30516072       1.13647472       0.72293051       0.00000000 NULL       0.01237000       0.00087200       0.01999900
P        2.72975406       2.64092197       3.12835001       0.00000000 NULL       0.01237000       0.01688300      -0.01075500
P        5.15434740       3.97185274       0.62275072       0.00000000 NULL       0.01237000      -0.01775600      -0.00924400
9
Lattice="7.278368950637392 0.0 0.0 0.0 5.171185568586859 3.0373228213512924e-15 0.0 -2.585592784293431 4.478378070079708" Properties=species:S:1:pos:R:3:initial_magmoms:R:1:castep_labels:S:1:forces:R:3 n_minim_iter=17 energy=-47.847886182753 stress="-0.0007668654561526449 0.0 -0.0 0.0 0.00014914898319416285 0.0 -0.0 0.0 0.00014908965583410153" free_energy=-47.847886182753 pbc="T T T"
P        0.23427926       0.05302897       2.75104717       0.00000000 NULL      -0.00843300      -0.01475900      -0.02896000
P        2.66040224      -0.22963054       3.05693005       0.00000000 NULL      -0.00843300      -0.01770100       0.02726100
P        5.08652523       0.17660157       3.14877893       0.00000000 NULL      -0.00843300       0.03245800       0.00169700
P        0.14288630      -1.10483834       0.79402822       0.00000000 NULL       0.00908500       0.02428800       0.00939900
P        2.56900928      -1.34552501       5.03818203       0.00000000 NULL       0.00908500      -0.00400300      -0.02573200
P        4.99513226       2.45036335       3.12454589       0.00000000 NULL       0.00908500      -0.02028200       0.01633300
P        0.30693510       1.12892088       0.73039345       0.00000000 NULL      -0.00065200      -0.00972300       0.01341000
P        2.73305808       2.65367162       3.13550719       0.00000000 NULL      -0.00065200       0.01647500       0.00171400
P        5.15918106       3.97418585       0.61247744       0.00000000 NULL      -0.00065100      -0.00675200      -0.01512300
9
Lattice="7.284276024611858 0.0 0.0 0.0 5.175994134935337 3.0526099928420794e-15 0.0 -2.58799706746767 4.482542410693272" Properties=species:S:1:pos:R:3:initial_magmoms:R:1:castep_labels:S:1:forces:R:3 n_minim_iter=18 energy=-47.848648168281 stress="-0.00037359413793136635 0.0 -0.0 0.0 0.0009288967962281469 0.0 -0.0 0.0 0.0009288376270583764" free_energy=-47.848648168281 pbc="T T T"
P        0.23129164       0.03471026       2.74990655       0.00000000 NULL      -0.00449400      -0.00843400      -0.02179200
P        2.65938365      -0.22386327       3.07752918       0.00000000 NULL      -0.00449400      -0.01465400       0.01819900
P        5.08747565       0.18915301       3.13764910       0.00000000 NULL      -0.00449400       0.02308900       0.00359100
P        0.14424859      -1.11449673       0.78694004       0.00000000 NULL       0.00824900       0.04178100       0.00210000
P        2.57234059      -1.34923864       5.05425487       0.00000000 NULL       0.00824800      -0.01907200      -0.03723100
P        5.00043260       2.46373537       3.12388991       0.00000000 NULL       0.00824800      -0.02270800       0.03513200
P        0.30911585       1.12242957       0.74101462       0.00000000 NULL      -0.00375500      -0.02221300       0.01335500
P        2.73720786       2.66851977       3.13998258       0.00000000 NULL      -0.00375500       0.02267000       0.01255800
P        5.16529987       3.97304186       0.60154521       0.00000000 NULL      -0.00375500      -0.00045900      -0.02591200
9
Lattice="7.2931278963953154 0.0 0.0 0.0 5.1789991006075935 2.187411851205772e-15 0.0 -2.589499550303798 4.485144787302944" Properties=species:S:1:pos:R:3:initial_magmoms:R:1:castep_labels:S:1:forces:R:3 n_minim_iter=19 energy=-47.849437103448 stress="0.0002181703918546075 -0.0 0.0 -0.0 0.0007646588896332752 -5.902878567494792e-08 0.0 -5.902878567494792e-08 0.0007647179184189503" free_energy=-47.849437103448 pbc="T T T"
P        0.22721062      -0.00061512       2.74815660       0.00000000 NULL       0.00328300       0.00409200      -0.00241400
P        2.65825325      -0.20921857       3.11159920       0.00000000 NULL       0.00328200      -0.00413700      -0.00233500
P        5.08929588       0.20983369       3.11053378       0.00000000 NULL       0.00328300       0.00004500       0.00475000
P        0.14621906      -1.12104646       0.76797436       0.00000000 NULL       0.00279600       0.02922800      -0.00810400
P        2.57726169      -1.36389101       5.07201232       0.00000000 NULL       0.00279700      -0.02163100      -0.02126200
P        5.00830433       2.48493748       3.13030289       0.00000000 NULL       0.00279700      -0.00759800       0.02936700
P        0.31205487       1.11514828       0.76418205       0.00000000 NULL      -0.00607900      -0.02166400       0.00278800
P        2.74309751       2.69372648       3.13730702       0.00000000 NULL      -0.00607900       0.01324500       0.01736800
P        5.17414014       3.95962389       0.58365571       0.00000000 NULL      -0.00607900       0.00841900      -0.02015700
9
Lattice="7.289920431247458 0.0 0.0 0.0 5.178896169485562 1.5577407049862638e-15 0.0 -2.589448084742782 4.485055646336426" Properties=species:S:1:pos:R:3:initial_magmoms:R:1:castep_labels:S:1:forces:R:3 n_minim_iter=20 energy=-47.849711505133 stress="-0.00018284080716282242 -0.0 -0.0 -0.0 0.00016943484358854572 -0.0 -0.0 -0.0 0.00016955295780505915" free_energy=-47.849711505133 pbc="T T T"
P        0.22819869       0.00156650       2.74786303       0.00000000 NULL       0.00109800       0.00084100       0.00045000
P        2.65817216      -0.21051214       3.10976751       0.00000000 NULL       0.00109700      -0.00003100      -0.00095200
P        5.08814564       0.20894565       3.11248076       0.00000000 NULL       0.00109700      -0.00081000       0.00050400
P        0.14623408      -1.11611577       0.76651768       0.00000000 NULL       0.00317700       0.00484400      -0.00354100
P        2.57620756      -1.36756642       5.06838142       0.00000000 NULL       0.00317500      -0.00548900      -0.00242800
P        5.00618103       2.48368219       3.13521220       0.00000000 NULL       0.00317500       0.00064300       0.00596700
P        0.31075062       1.11636382       0.76371445       0.00000000 NULL      -0.00427100      -0.00437400      -0.00102100
P        2.74072410       2.69266229       3.13639900       0.00000000 NULL      -0.00427200       0.00130400       0.00430000
P        5.17069757       3.95931815       0.58494221       0.00000000 NULL      -0.00427400       0.00307100      -0.00328000
