8
Lattice="2.975200000000002 -2.1601980521033538e-16 0.0 -0.8848739608373127 7.135371712414995 0.0 0.0 0.0 8.33144" Properties=species:S:1:pos:R:3:initial_magmoms:R:1:castep_labels:S:1 n_minim_iter=1 pbc="T T T"
P        0.48494911       4.57086774       3.93453837       0.00000000 NULL
P        1.60537693       2.56450397       8.10025837       0.00000000 NULL
P        0.55716910       0.42132229       1.45254491       0.00000000 NULL
P        1.53315694       6.71404942       5.61826491       0.00000000 NULL
P       -0.14996426       2.14954286       6.54390789       0.00000000 NULL
P        2.24029030       4.98582885       2.37818789       0.00000000 NULL
P        1.31662800       2.91338440       1.74993399       0.00000000 NULL
P        0.77369804       4.22198731       5.91565399       0.00000000 NULL
8
Lattice="2.9746829665683703 -0.0021108488090275045 0.0 -0.8897825994029855 7.132443231437924 0.0 0.0 0.0 8.340676075899038" Properties=species:S:1:pos:R:3:initial_magmoms:R:1:castep_labels:S:1 n_minim_iter=2 pbc="T T T"
P        0.48185805       4.56824177       3.93883647       0.00000000 NULL
P        1.60304232       2.56209061       8.10917451       0.00000000 NULL
P        0.55683786       0.42078087       1.45417734       0.00000000 NULL
P        1.52806251       6.70955151       5.62451538       0.00000000 NULL
P       -0.15122986       2.14848644       6.55096111       0.00000000 NULL
P        2.23613023       4.98184594       2.38062308       0.00000000 NULL
P        1.31430015       2.91088550       1.75211665       0.00000000 NULL
P        0.77060022       4.21944688       5.92245469       0.00000000 NULL
8
Lattice="2.9488522078689905 -0.1082495499156642 0.0 -1.1366507493448421 6.989526474879337 0.0 0.0 0.0 8.81999552675287" Properties=species:S:1:pos:R:3:initial_magmoms:R:1:castep_labels:S:1 n_minim_iter=3 pbc="T T T"
P        0.32657062       4.43852365       4.16178713       0.00000000 NULL
P        1.48563084       2.44275327       8.57178489       0.00000000 NULL
P        0.54014168       0.39369638       1.53892826       0.00000000 NULL
P        1.27205978       6.48758055       5.94892602       0.00000000 NULL
P       -0.21464106       2.09625447       6.91663609       0.00000000 NULL
P        2.02684251       4.78502245       2.50663832       0.00000000 NULL
P        1.19752620       2.78704031       1.86582295       0.00000000 NULL
P        0.61467526       4.09423661       6.27582071       0.00000000 NULL
8
Lattice="2.8548890003076406 -0.19122852112504124 0.0 -1.3077115883623522 6.954257999455225 0.0 0.0 0.0 8.917323041428858" Properties=species:S:1:pos:R:3:initial_magmoms:R:1:castep_labels:S:1 n_minim_iter=4 pbc="T T T"
P        0.19337789       4.38490765       4.20637731       0.00000000 NULL
P        1.35379952       2.37812183       8.66503883       0.00000000 NULL
P        0.51372311       0.37865624       1.55551419       0.00000000 NULL
P        1.03345430       6.38437324       6.01417571       0.00000000 NULL
P       -0.26149220       2.07602396       6.98930480       0.00000000 NULL
P        1.80866962       4.68700552       2.53064328       0.00000000 NULL
P        1.07414484       2.71736806       1.89179809       0.00000000 NULL
P        0.47303258       4.04566142       6.35045961       0.00000000 NULL
8
Lattice="2.7819361543320857 -0.2310131528465719 0.0 -1.381429006351705 7.082841120430165 0.0 0.0 0.0 9.013040241619558" Properties=species:S:1:pos:R:3:initial_magmoms:R:1:castep_labels:S:1 n_minim_iter=5 pbc="T T T"
P        0.12590049       4.45153406       4.25202456       0.00000000 NULL
P        1.27460665       2.40029391       8.75854468       0.00000000 NULL
P        0.49609283       0.38108670       1.57056777       0.00000000 NULL
P        0.90441432       6.47074127       6.07708789       0.00000000 NULL
P       -0.28158808       2.10623940       7.06288504       0.00000000 NULL
P        1.68209523       4.74558856       2.55636492       0.00000000 NULL
P        1.00307627       2.73936212       1.91469271       0.00000000 NULL
P        0.39743088       4.11246585       6.42121283       0.00000000 NULL
8
Lattice="2.6248100489915807 -0.2969101168484735 0.0 -1.492736660858831 7.361065271216265 0.0 0.0 0.0 9.200877374050298" Properties=species:S:1:pos:R:3:initial_magmoms:R:1:castep_labels:S:1 n_minim_iter=6 pbc="T T T"
P        0.00687049       4.60283637       4.34431332       0.00000000 NULL
P        1.12520289       2.46131878       8.94475201       0.00000000 NULL
P        0.45966033       0.39045261       1.59939073       0.00000000 NULL
P        0.67241306       6.67370255       6.19982941       0.00000000 NULL
P       -0.31324107       2.17300345       7.20604290       0.00000000 NULL
P        1.44531446       4.89115170       2.60560421       0.00000000 NULL
P        0.87108498       2.79871369       1.95886750       0.00000000 NULL
P        0.26098841       4.26544146       6.55930619       0.00000000 NULL
8
Lattice="2.4708537400641393 -0.38908377406283234 0.0 -1.6680060133193888 7.6034084268106055 0.0 0.0 0.0 9.593184296127486" Properties=species:S:1:pos:R:3:initial_magmoms:R:1:castep_labels:S:1 n_minim_iter=7 pbc="T T T"
P       -0.15130695       4.71846373       4.54952887       0.00000000 NULL
P        0.95415468       2.49586092       9.34612101       0.00000000 NULL
P        0.41945049       0.40002038       1.66033405       0.00000000 NULL
P        0.38339724       6.81430427       6.45692619       0.00000000 NULL
P       -0.36132685       2.21892088       7.49453918       0.00000000 NULL
P        1.16417458       4.99540377       2.69794703       0.00000000 NULL
P        0.72075018       2.81505245       2.04841332       0.00000000 NULL
P        0.08209754       4.39927220       6.84500546       0.00000000 NULL
8
Lattice="2.553818589899808 -0.4168297493468863 0.0 -1.759223841519026 7.409048868352651 0.0 0.0 0.0 9.640155557667223" Properties=species:S:1:pos:R:3:initial_magmoms:R:1:castep_labels:S:1 n_minim_iter=8 pbc="T T T"
P       -0.17573167       4.58156670       4.58936541       0.00000000 NULL
P        0.97032642       2.41065242       9.40944319       0.00000000 NULL
P        0.43092829       0.39086788       1.66460432       0.00000000 NULL
P        0.36366646       6.60135124       6.48468210       0.00000000 NULL
P       -0.38105743       2.15451295       7.51825000       0.00000000 NULL
P        1.17565218       4.83770617       2.69817223       0.00000000 NULL
P        0.73583371       2.70926262       2.05772644       0.00000000 NULL
P        0.05876104       4.28295649       6.87780422       0.00000000 NULL
8
Lattice="2.499729810362938 -0.4014511904900874 0.0 -1.706254801982137 7.4669180969914 0.0 0.0 0.0 9.621329908286343" Properties=species:S:1:pos:R:3:initial_magmoms:R:1:castep_labels:S:1 n_minim_iter=9 pbc="T T T"
P       -0.16041629       4.62374021       4.58656911       0.00000000 NULL
P        0.95389130       2.44172669       9.39723407       0.00000000 NULL
P        0.42281577       0.40193075       1.65717311       0.00000000 NULL
P        0.37065924       6.66353615       6.46783806       0.00000000 NULL
P       -0.36702012       2.16821978       7.50141509       0.00000000 NULL
P        1.16049512       4.89724712       2.69075014       0.00000000 NULL
P        0.72849431       2.73407865       2.05387556       0.00000000 NULL
P        0.06498070       4.33138825       6.86454051       0.00000000 NULL
8
Lattice="2.4985093580330093 -0.4017094126093206 0.0 -1.706511108891891 7.4715633190232085 0.0 0.0 0.0 9.642872369106053" Properties=species:S:1:pos:R:3:initial_magmoms:R:1:castep_labels:S:1 n_minim_iter=10 pbc="T T T"
P       -0.15951235       4.62587454       4.60385171       0.00000000 NULL
P        0.95151060       2.44397936       9.42528789       0.00000000 NULL
P        0.42255162       0.40606795       1.65745633       0.00000000 NULL
P        0.36944663       6.66378595       6.47889252       0.00000000 NULL
P       -0.36582576       2.16599847       7.51387386       0.00000000 NULL
P        1.15782401       4.90385543       2.69243767       0.00000000 NULL
P        0.72980862       2.72975556       2.05922551       0.00000000 NULL
P        0.06218963       4.34009835       6.88066169       0.00000000 NULL
8
Lattice="2.4874287278828615 -0.40088046645171604 0.0 -1.701227497688062 7.458421205486399 0.0 0.0 0.0 9.694600424149622" Properties=species:S:1:pos:R:3:initial_magmoms:R:1:castep_labels:S:1 n_minim_iter=11 pbc="T T T"
P       -0.15477032       4.61532532       4.65359291       0.00000000 NULL
P        0.94097155       2.44221541       9.50089312       0.00000000 NULL
P        0.42061962       0.41932577       1.65338017       0.00000000 NULL
P        0.36558161       6.63821496       6.50068038       0.00000000 NULL
P       -0.36027530       2.15023393       7.53864261       0.00000000 NULL
P        1.14647653       4.90730681       2.69134240       0.00000000 NULL
P        0.73297386       2.70456676       2.07373352       0.00000000 NULL
P        0.05322737       4.35297397       6.92103373       0.00000000 NULL
