6
Lattice="6.188488282326776 0.0 0.0 0.0 5.330451979194311 3.515205152778965e-16 0.0 -2.665225989597156 4.616306827635314" Properties=species:S:1:pos:R:3:initial_magmoms:R:1:castep_labels:S:1:forces:R:3 n_minim_iter=1 energy=-29.19841044742 stress="0.004871744864722553 -0.0 -0.0 -0.0 0.006496841851624423 0.0 -0.0 0.0 0.006496841851624423" free_energy=-29.19841044742 pbc="T T T"
P        4.67754500       1.49806298       3.13759862       0.00000000 NULL      -0.00485600       0.20322800       0.07653700
P        0.55188614      -0.80104561       4.34486812       0.00000000 NULL      -0.00485500      -0.16789600       0.13773300
P        2.61471557      -0.69701737       1.75014692       0.00000000 NULL      -0.00485500      -0.03533200      -0.21426900
P        0.44826536       2.41542592       3.93112722       0.00000000 NULL       0.00485600      -0.10832900      -0.72216600
P        2.51109479       0.71828298       0.12625660       0.00000000 NULL       0.00485500       0.67957900       0.26726800
P        4.57392422       4.86196906       0.55892300       0.00000000 NULL       0.00485500      -0.57125100       0.45489800
6
Lattice="6.112236284595875 0.0 0.0 0.0 5.243043703437307 8.094989762896042e-17 0.0 -2.621521851718655 4.5406090403287545" Properties=species:S:1:pos:R:3:initial_magmoms:R:1:castep_labels:S:1:forces:R:3 n_minim_iter=2 energy=-29.236477248146 stress="-0.00430432932233093 -0.0 -0.0 -0.0 -0.003903193016318993 0.0 -0.0 0.0 -0.0039032617393455495" free_energy=-29.236477248146 pbc="T T T"
P        4.61983008       1.47683853       3.08740665       0.00000000 NULL      -0.10860200      -0.11150700      -0.34774800
P        0.54500589      -0.79067001       4.27588540       0.00000000 NULL      -0.10860100       0.35690800       0.07730600
P        2.58241798      -0.68616853       1.71792602       0.00000000 NULL      -0.10860200      -0.24540500       0.27044100
P        0.44282217       2.37403729       3.85479400       0.00000000 NULL       0.10860200      -0.35833900      -0.81764500
P        2.48023426       0.71767552       0.12857960       0.00000000 NULL       0.10860100       0.88727300       0.09848900
P        4.51764636       4.77285274       0.55723543       0.00000000 NULL       0.10860200      -0.52893100       0.71915700
6
Lattice="6.088975840075407 0.0 0.0 0.0 5.071853201039676 -4.809592892909697e-16 0.0 -2.5359266005198395 4.392353716365784" Properties=species:S:1:pos:R:3:initial_magmoms:R:1:castep_labels:S:1:forces:R:3 n_minim_iter=3 energy=-29.531691592736 stress="-0.007152862438330272 0.0 0.0 0.0 -0.004565473357072902 -0.0 0.0 -0.0 -0.004565399635983315" free_energy=-29.531691592736 pbc="T T T"
P        4.59070084       1.43580626       2.95921250       0.00000000 NULL      -0.33535800      -0.15932800      -0.14624900
P        0.53138362      -0.74472974       4.15619217       0.00000000 NULL      -0.33535800       0.20632200      -0.06485600
P        2.56104223      -0.69107654       1.66930276       0.00000000 NULL      -0.33535900      -0.04699300       0.21110800
P        0.45268520       2.25157059       3.58391067       0.00000000 NULL       0.33535800      -0.08749300      -0.42451300
P        2.48234382       0.84231022       0.15796200       0.00000000 NULL       0.33535800       0.41138400       0.13648600
P        4.51200243       4.51389898       0.65048105       0.00000000 NULL       0.33535800      -0.32389200       0.28802500
6
Lattice="6.209927175383687 0.0 0.0 0.0 5.004533371616535 -1.456753368222823e-16 0.0 -2.5022666858082694 4.33405303390691" Properties=species:S:1:pos:R:3:initial_magmoms:R:1:castep_labels:S:1:forces:R:3 n_minim_iter=4 energy=-29.564128169391 stress="0.00932596487002964 -0.0 0.0 -0.0 -0.009894889263799738 -0.0 0.0 -0.0 -0.009894815020762575" free_energy=-29.564128169391 pbc="T T T"
P        4.66157723       1.41752875       2.92300303       0.00000000 NULL      -0.03353800      -0.03219600      -0.23822800
P        0.52162578      -0.73789258       4.10016742       0.00000000 NULL      -0.03353700       0.22241200       0.09123200
P        2.59160150      -0.67963618       1.64493561       0.00000000 NULL      -0.03353700      -0.19021200       0.14699600
P        0.48199055       2.22164010       3.50395052       0.00000000 NULL       0.03353800      -0.43454200      -0.42363000
P        2.55196627       0.85920315       0.17202151       0.00000000 NULL       0.03353700       0.58414300      -0.16450800
P        4.62194200       4.42595680       0.65808100       0.00000000 NULL       0.03353700      -0.14960300       0.58813800
6
Lattice="5.814294328907936 0.0 0.0 0.0 5.076172475300469 -1.4070178564321078e-16 0.0 -2.538086237650236 4.396094317601546" Properties=species:S:1:pos:R:3:initial_magmoms:R:1:castep_labels:S:1:forces:R:3 n_minim_iter=5 energy=-29.764001630574 stress="0.013247691850537226 -0.0 -0.0 -0.0 0.0019171025394171888 -0.0 -0.0 -0.0 0.0019171796119644036" free_energy=-29.764001630574 pbc="T T T"
P        4.27718145       1.44658180       2.98836416       0.00000000 NULL       0.12500500       0.02430000       0.32890100
P        0.40098524      -0.77320395       4.15468883       0.00000000 NULL       0.12500500      -0.29698500      -0.14340500
P        2.33908335      -0.67337786       1.64913564       0.00000000 NULL       0.12500700       0.27268800      -0.18549600
P        0.53869085       2.24779324       3.43027513       0.00000000 NULL      -0.12500500       0.03186200      -0.09533400
P        2.47678896       0.98157045       0.23150848       0.00000000 NULL      -0.12500600       0.06662800       0.07526300
P        4.41488707       4.38489502       0.73431070       0.00000000 NULL      -0.12500600      -0.09849300       0.02007300
6
Lattice="5.266321221136701 0.0 0.0 0.0 5.257626308195549 1.115371800653695e-16 0.0 -2.6288131540977773 4.553237946502739" Properties=species:S:1:pos:R:3:initial_magmoms:R:1:castep_labels:S:1:forces:R:3 n_minim_iter=6 energy=-29.970555627572 stress="0.018723165532221114 -0.0 0.0 -0.0 0.010463654658473404 -0.0 0.0 -0.0 0.010463654658473404" free_energy=-29.970555627572 pbc="T T T"
P        3.81226841       1.38134667       3.22451827       0.00000000 NULL       0.22446300       0.09873800       0.32715200
P        0.30138760      -0.85437492       4.13726012       0.00000000 NULL       0.22446300      -0.33268800      -0.07806500
P        2.05682800      -0.52697176       1.74469750       0.00000000 NULL       0.22446300       0.23395200      -0.24908600
P        0.54972780       2.37081397       3.37411554       0.00000000 NULL      -0.22446200       0.14745100       0.16544500
P        2.30516821       1.15014955       0.36612735       0.00000000 NULL      -0.22446300      -0.21700800       0.04497500
P        4.06060861       4.36547594       0.81299505       0.00000000 NULL      -0.22446400       0.06955500      -0.21042100
6
Lattice="4.992259730812502 0.0 0.0 0.0 5.223425235729166 -1.0664229819234249e-15 0.0 -2.6117126178645846 4.52361894891018" Properties=species:S:1:pos:R:3:initial_magmoms:R:1:castep_labels:S:1:forces:R:3 n_minim_iter=7 energy=-30.030174541137 stress="0.003528198919073517 0.0 0.0 0.0 0.004168579866109278 -0.0 0.0 -0.0 0.004168664639864513" free_energy=-30.030174541137 pbc="T T T"
P        3.58830216       1.30126025       3.21473131       0.00000000 NULL       0.03222700      -0.06957700       0.13984000
P        0.26012901      -0.82295649       4.04317773       0.00000000 NULL       0.03222700      -0.08631500      -0.13017500
P        1.92421558      -0.47830376       1.78932886       0.00000000 NULL       0.03222600       0.15589400      -0.00966400
P        0.54669394       2.36470593       3.30915791       0.00000000 NULL      -0.03222700       0.14866000       0.17151700
P        2.21078052       1.17525746       0.39331645       0.00000000 NULL      -0.03222700      -0.22287000       0.04298500
P        3.87486710       4.29517446       0.82114459       0.00000000 NULL      -0.03222700       0.07420800      -0.21450300
6
Lattice="4.8379936161664725 0.0 0.0 0.0 5.208970564352639 -1.792288408538003e-15 0.0 -2.604485282176321 4.5111008362947524" Properties=species:S:1:pos:R:3:initial_magmoms:R:1:castep_labels:S:1:forces:R:3 n_minim_iter=8 energy=-30.064216610391 stress="-0.00529211981650114 0.0 -0.0 0.0 -0.00961119258730749 0.0 -0.0 0.0 -0.00961119258730749" free_energy=-30.064216610391 pbc="T T T"
P        3.47138973       1.21987779       3.20803385       0.00000000 NULL      -0.20147600      -0.13908400      -0.17977300
P        0.24606065      -0.78369243       3.96352907       0.00000000 NULL      -0.20147800       0.22522900      -0.03056500
P        1.85872519      -0.43618537       1.85063875       0.00000000 NULL      -0.20147800      -0.08614700       0.21033900
P        0.53583041       2.37821217       3.30793377       0.00000000 NULL       0.20147500       0.03022900       0.12783000
P        2.14849495       1.15510979       0.40562527       0.00000000 NULL       0.20147800      -0.12581600      -0.03773800
P        3.76115949       4.28013388       0.79754179       0.00000000 NULL       0.20147800       0.09559000      -0.09009300
6
Lattice="4.382521432958258 0.0 0.0 0.0 5.297043876291336 -3.736247684955731e-15 0.0 -2.6485219381456675 4.587374561829095" Properties=species:S:1:pos:R:3:initial_magmoms:R:1:castep_labels:S:1:forces:R:3 n_minim_iter=9 energy=-30.193653078979 stress="-0.03116612482039524 -0.0 0.0 -0.0 -0.03478673197891979 0.0 0.0 0.0 -0.034786638076200214" free_energy=-30.193653078979 pbc="T T T"
P        3.12069144       1.06469896       3.25350979       0.00000000 NULL      -0.50055000      -0.33571000      -0.74042100
P        0.19901049      -0.70144967       3.88267601       0.00000000 NULL      -0.50054800       0.80908100       0.07947900
P        1.65985096      -0.36324929       2.03856332       0.00000000 NULL      -0.50054900      -0.47337200       0.66094600
P        0.50926910       2.52262835       3.39205301       0.00000000 NULL       0.50055000      -0.24677900       0.16823600
P        1.97010957       1.09812562       0.48863373       0.00000000 NULL       0.50054900      -0.02230600      -0.29783600
P        3.43095005       4.32481184       0.70668782       0.00000000 NULL       0.50054800       0.26908600       0.12959600
6
Lattice="4.2673381166619295 0.0 0.0 0.0 5.34659816049195 -2.8970279963937472e-15 0.0 -2.6732990802459753 4.63028983081318" Properties=species:S:1:pos:R:3:initial_magmoms:R:1:castep_labels:S:1:forces:R:3 n_minim_iter=10 energy=-30.227464151506 stress="-0.04812941796097043 -0.0 0.0 -0.0 -0.040852680394039095 0.0 0.0 0.0 -0.040852585736058926" free_energy=-30.227464151506 pbc="T T T"
P        3.03865682       1.01683423       3.27351565       0.00000000 NULL      -0.57132800      -0.28308100      -0.88068700
P        0.19376475      -0.67006575       3.87413628       0.00000000 NULL      -0.57132800       0.90424100       0.19518900
P        1.61621078      -0.34676848       2.11292773       0.00000000 NULL      -0.57132800      -0.62115800       0.68550000
P        0.49589939       2.58682464       3.46467066       0.00000000 NULL       0.57132900      -0.35508500       0.21701500
P        1.91834542       1.05269302       0.50792052       0.00000000 NULL       0.57132900      -0.01039900      -0.41601900
P        3.34079146       4.38037957       0.65769864       0.00000000 NULL       0.57132700       0.36548200       0.19900200
6
Lattice="4.187867888962702 0.0 0.0 0.0 5.483213492160112 5.914956552066972e-16 0.0 -2.741606746080059 4.7486021785842425" Properties=species:S:1:pos:R:3:initial_magmoms:R:1:castep_labels:S:1:forces:R:3 n_minim_iter=11 energy=-30.406228980946 stress="-0.0833797863757785 0.0 -0.0 0.0 -0.05153032020280779 -0.0 -0.0 -0.0 -0.05153032020280779" free_energy=-30.406228980946 pbc="T T T"
P        3.00513358       0.96511627       3.31465026       0.00000000 NULL      -0.50478800      -0.17005900      -1.06309800
P        0.21322166      -0.61152272       3.92709226       0.00000000 NULL      -0.50478900       1.00570200       0.38427400
P        1.60917762      -0.35359356       2.25546184       0.00000000 NULL      -0.50478800      -0.83563900       0.67882200
P        0.46359863       2.73490333       3.73860534       0.00000000 NULL       0.50478800      -0.22246600      -0.31980500
P        1.85955460       0.87803462       0.49919309       0.00000000 NULL       0.50478800       0.38819000      -0.03275400
P        3.25551056       4.61188228       0.51080374       0.00000000 NULL       0.50478900      -0.16572700       0.35256000
6
Lattice="4.200475707450677 0.0 0.0 0.0 5.61916971487087 -6.98045874649897e-18 0.0 -2.809584857435438 4.866343721254334" Properties=species:S:1:pos:R:3:initial_magmoms:R:1:castep_labels:S:1:forces:R:3 n_minim_iter=12 energy=-30.520458080241 stress="-0.07741532585437433 -0.0 -0.0 -0.0 -0.04910142189511417 0.0 -0.0 0.0 -0.04910150895668831" free_energy=-30.520458080241 pbc="T T T"
P        3.04263186       0.96681151       3.37017355       0.00000000 NULL      -0.39017700      -0.32395800      -1.26569200
P        0.24231473      -0.59247681       4.01854028       0.00000000 NULL      -0.39017900       1.25810000       0.35229100
P        1.64247329      -0.37433471       2.34397361       0.00000000 NULL      -0.39017800      -0.93414400       0.91340300
P        0.43654298       2.88861992       3.91297432       0.00000000 NULL       0.39017600      -0.37996400      -0.85987300
P        1.83670155       0.78612459       0.54513107       0.00000000 NULL       0.39017800       0.93465600       0.10087600
P        3.23686012       4.75401006       0.40823833       0.00000000 NULL       0.39018000      -0.55468900       0.75899500
6
Lattice="4.308978005785059 0.0 0.0 0.0 5.797129188250086 -3.757989086346754e-15 0.0 -2.898564594125042 5.020461146044837" Properties=species:S:1:pos:R:3:initial_magmoms:R:1:castep_labels:S:1:forces:R:3 n_minim_iter=13 energy=-30.879330562429 stress="-0.029276622547998087 0.0 -0.0 0.0 -0.027053667018366104 -0.0 -0.0 -0.0 -0.027053667018366104" free_energy=-30.879330562429 pbc="T T T"
P        3.17741956       0.98403891       3.39841722       0.00000000 NULL      -0.27498400      -0.66447100      -1.36173900
P        0.30476755      -0.53657051       4.17345523       0.00000000 NULL      -0.27498300       1.51153400       0.10542100
P        1.74109356      -0.44746841       2.46904984       0.00000000 NULL      -0.27498400      -0.84706400       1.25631500
P        0.39162559       3.12642287       4.07103857       0.00000000 NULL       0.27498300      -0.83382200      -0.04015200
P        1.82795159       0.70829492       0.67204235       0.00000000 NULL       0.27498400       0.45168300      -0.70203200
P        3.26427759       4.86097597       0.27738022       0.00000000 NULL       0.27498400       0.38214000       0.74218700
6
Lattice="4.404258754741565 0.0 0.0 0.0 5.864494552782356 -4.725147051305213e-15 0.0 -2.9322472763911764 5.078801263064981" Properties=species:S:1:pos:R:3:initial_magmoms:R:1:castep_labels:S:1:forces:R:3 n_minim_iter=14 energy=-31.146774329632 stress="-0.01467550783601061 -0.0 -0.0 -0.0 -0.012951376557300442 0.0 -0.0 0.0 -0.012951529020604922" free_energy=-31.146774329632 pbc="T T T"
P        3.30587410       0.95224588       3.30058484       0.00000000 NULL      -0.04518900      -0.32700400      -0.91339400
P        0.36970159      -0.40226599       4.25317797       0.00000000 NULL      -0.04519200       0.95452000       0.17350300
P        1.83778784      -0.54997990       2.60383971       0.00000000 NULL      -0.04519000      -0.62752000       0.73989000
P        0.34209007       3.29404881       4.19354334       0.00000000 NULL       0.04518900      -0.79529300      -0.11020900
P        1.81017632       0.58575507       0.75595828       0.00000000 NULL       0.04519200       0.49309000      -0.63364400
P        3.27826257       4.91693793       0.12929963       0.00000000 NULL       0.04518900       0.30220700       0.74385400
6
Lattice="4.535166532310765 0.0 0.0 0.0 5.765158512270781 -5.304075344265924e-15 0.0 -2.8825792561353882 4.992773728470597" Properties=species:S:1:pos:R:3:initial_magmoms:R:1:castep_labels:S:1:forces:R:3 n_minim_iter=15 energy=-31.308429925816 stress="-0.00910726318038398 -0.0 -0.0 -0.0 -0.0008342981427537234 0.0 -0.0 0.0 -0.0008343747471190483" free_energy=-31.308429925816 pbc="T T T"
P        3.42271710       0.95983651       3.16611784       0.00000000 NULL      -0.01466000      -0.56665500      -0.40795900
P        0.39927274      -0.33927749       4.24095761       0.00000000 NULL      -0.01466300       0.63663000      -0.28675800
P        1.91099492      -0.62055903       2.57847200       0.00000000 NULL      -0.01466100      -0.06997800       0.69471900
P        0.33367524       3.21720460       4.14101641       0.00000000 NULL       0.01466000      -0.31987700      -0.34879600
P        1.84539742       0.57033080       0.71567271       0.00000000 NULL       0.01466200       0.46200600      -0.10262800
P        3.35711960       4.86020236       0.13608461       0.00000000 NULL       0.01466200      -0.14212700       0.45142100
6
Lattice="4.729907330820562 0.0 0.0 0.0 5.611186946767164 -7.914182496820639e-15 0.0 -2.8055934733835777 4.859430441284006" Properties=species:S:1:pos:R:3:initial_magmoms:R:1:castep_labels:S:1:forces:R:3 n_minim_iter=16 energy=-31.453641020357 stress="-0.004617000467715675 -0.0 0.0 -0.0 0.008577575214817357 0.0 0.0 0.0 0.00857749767811518" free_energy=-31.453641020357 pbc="T T T"
P        3.59601903       0.87785684       3.03054913       0.00000000 NULL      -0.09370200       0.15461800      -0.07441000
P        0.44274747      -0.25786749       4.10440220       0.00000000 NULL      -0.09369900      -0.01286900       0.17110800
P        2.01938325      -0.61998936       2.58390954       0.00000000 NULL      -0.09370100      -0.14174800      -0.09669800
P        0.32167332       3.08117633       4.02159235       0.00000000 NULL       0.09370300       0.21257900      -0.34146800
P        1.89830910       0.58779763       0.65758080       0.00000000 NULL       0.09370200       0.18942800       0.35483000
P        3.47494488       4.74780645       0.18025728       0.00000000 NULL       0.09369700      -0.40200800      -0.01336100
6
Lattice="4.822213699026066 0.0 0.0 0.0 5.423594988974817 -9.101676274184079e-15 0.0 -2.7117974944874033 4.696971040290175" Properties=species:S:1:pos:R:3:initial_magmoms:R:1:castep_labels:S:1:forces:R:3 n_minim_iter=17 energy=-31.554259283311 stress="-0.0030308521823346067 -0.0 0.0 -0.0 0.011099014555979524 0.0 0.0 0.0 0.011099014555979524" free_energy=-31.554259283311 pbc="T T T"
P        3.66532838       0.85800693       2.84839863       0.00000000 NULL      -0.05630800      -0.03006400       0.20972900
P        0.45051925      -0.18399155       4.01582752       0.00000000 NULL      -0.05631000      -0.16659700      -0.13090100
P        2.05792382      -0.67401539       2.52971592       0.00000000 NULL      -0.05630900       0.19666200      -0.07882700
P        0.32881975       2.96567027       3.85811613       0.00000000 NULL       0.05630900       0.20401000      -0.14442600
P        1.93622431       0.59953327       0.63928773       0.00000000 NULL       0.05630900       0.02307200       0.24889000
P        3.54362888       4.57018893       0.19956718       0.00000000 NULL       0.05630900      -0.22708200      -0.10446500
6
Lattice="4.872926268850875 0.0 0.0 0.0 5.318374931542983 -9.49012759306917e-15 0.0 -2.659187465771485 4.605847797566549" Properties=species:S:1:pos:R:3:initial_magmoms:R:1:castep_labels:S:1:forces:R:3 n_minim_iter=18 energy=-31.58396106796 stress="-0.005529995519658201 -0.0 0.0 -0.0 0.007020628770900887 8.377638685115972e-08 0.0 8.377638685115972e-08 0.007020712547287738" free_energy=-31.58396106796 pbc="T T T"
P        3.69350744       0.84340094       2.78109822       0.00000000 NULL      -0.07261200      -0.08553900       0.21911200
P        0.44488993      -0.17101471       3.94570533       0.00000000 NULL      -0.07261000      -0.14698600      -0.18363500
P        2.06919868      -0.67238623       2.48489205       0.00000000 NULL      -0.07261100       0.23252500      -0.03547500
P        0.34264510       2.87729149       3.76161360       0.00000000 NULL       0.07261300       0.21332300       0.01938400
P        1.96695386       0.62207624       0.61100073       0.00000000 NULL       0.07261100      -0.12344800       0.17504900
P        3.59126262       4.47819465       0.23323346       0.00000000 NULL       0.07260900      -0.08987600      -0.19443400
6
Lattice="5.015330223283561 0.0 0.0 0.0 5.142045467083 -9.262165796724947e-15 0.0 -2.5710227335414944 4.453142001908498" Properties=species:S:1:pos:R:3:initial_magmoms:R:1:castep_labels:S:1:forces:R:3 n_minim_iter=19 energy=-31.61325710823 stress="-0.016402316793992126 0.0 -0.0 0.0 -0.006042198050279843 -0.0 -0.0 -0.0 -0.006042110974360399" free_energy=-31.61325710823 pbc="T T T"
P        3.78638931       0.79644157       2.67949212       0.00000000 NULL      -0.09527500      -0.04237600       0.05174800
P        0.44283583      -0.14770630       3.80313458       0.00000000 NULL      -0.09527300      -0.02362600      -0.06257300
P        2.11461257      -0.64873528       2.42365731       0.00000000 NULL      -0.09527400       0.06600400       0.01082400
P        0.36771410       2.75123356       3.61972831       0.00000000 NULL       0.09527400       0.05069400       0.22161800
P        2.03949084       0.63165201       0.57277400       0.00000000 NULL       0.09527400      -0.21727400      -0.06690300
P        3.71126758       4.33018262       0.26063969       0.00000000 NULL       0.09527500       0.16657800      -0.15471400
6
Lattice="5.184024691925809 0.0 0.0 0.0 5.055448826675661 -9.23671015472593e-15 0.0 -2.5277244133378245 4.378147111433358" Properties=species:S:1:pos:R:3:initial_magmoms:R:1:castep_labels:S:1:forces:R:3 n_minim_iter=20 energy=-31.632328539492 stress="-0.0043597466797645435 -0.0 0.0 -0.0 -0.009491669826479228 0.0 0.0 0.0 -0.009491669826479228" free_energy=-31.632328539492 pbc="T T T"
P        3.91621612       0.76628529       2.63260266       0.00000000 NULL      -0.13140900      -0.10963600      -0.04264400
P        0.46019966      -0.13531902       3.72546831       0.00000000 NULL      -0.13141100       0.09174900      -0.07362600
P        2.18820789      -0.63096628       2.39822325       0.00000000 NULL      -0.13141000       0.01788700       0.11627100
P        0.37761417       2.69145686       3.56755536       0.00000000 NULL       0.13141000      -0.05843500       0.26260000
P        2.10562240       0.62012683       0.54709233       0.00000000 NULL       0.13141000      -0.19820100      -0.18190800
P        3.83363063       4.27158955       0.26349942       0.00000000 NULL       0.13141000       0.25663600      -0.08069200
6
Lattice="5.169373462183814 0.0 0.0 0.0 5.1457556955819586 -9.862626055061615e-15 0.0 -2.5728778477909726 4.456355154042442" Properties=species:S:1:pos:R:3:initial_magmoms:R:1:castep_labels:S:1:forces:R:3 n_minim_iter=21 energy=-31.654899231423 stress="-0.0005965892350936042 -0.0 -0.0 -0.0 -0.0011167489103745944 -0.0 -0.0 -0.0 -0.001116833269712136" free_energy=-31.654899231423 pbc="T T T"
P        3.90564850       0.77476181       2.71278236       0.00000000 NULL      -0.11993700       0.02754200      -0.12009100
P        0.45939952      -0.16384150       3.77092739       0.00000000 NULL      -0.11993400       0.09022700       0.08389700
P        2.18252401      -0.61092032       2.42900056       0.00000000 NULL      -0.11993600      -0.11777100       0.03619300
P        0.37604651       2.75403738       3.65481015       0.00000000 NULL       0.11993700      -0.03166800       0.05846200
P        2.09917100       0.60357856       0.55766126       0.00000000 NULL       0.11993600      -0.03479600      -0.05665800
P        3.82229549       4.36101759       0.24388374       0.00000000 NULL       0.11993300       0.06646600      -0.00180300
