36
Lattice="5.536375820885458 0.0 0.0 0.0 11.342817234524802 0.0 0.0 0.0 12.748189569765199" Properties=species:S:1:pos:R:3:initial_magmoms:R:1:castep_labels:S:1:forces:R:3 n_minim_iter=1 energy=-194.697189971869 stress="0.00015696471109393414 0.0 0.0 0.0 0.00010092908368923985 -0.0 0.0 -0.0 -1.1516907817014746e-05" free_energy=-194.697189971869 pbc="T T T"
P        0.66491491       6.54965072       3.59054710       0.00000000 NULL      -0.00059400       0.00019900      -0.00221700
P        4.87146092       6.54965072       9.15764247       0.00000000 NULL       0.00059400       0.00019900       0.00221700
P        0.66491491       0.87824210       9.15764247       0.00000000 NULL      -0.00059400       0.00019900       0.00221600
P        4.87146092       0.87824210       3.59054710       0.00000000 NULL       0.00059400       0.00019900      -0.00221600
P       -0.05168314       1.95469087       1.68003503       0.00000000 NULL      -0.00195300       0.00202800       0.00474000
P        5.58805896       1.95469087      11.06815454       0.00000000 NULL       0.00195300       0.00202800      -0.00474000
P       -0.05168314       7.62609948      11.06815454       0.00000000 NULL      -0.00195300       0.00202700      -0.00474000
P        5.58805896       7.62609948       1.68003503       0.00000000 NULL       0.00195300       0.00202700       0.00474000
P        3.51994333       6.94129168       1.85156710       0.00000000 NULL       0.00614900      -0.00236200       0.00197100
P        2.01643249       6.94129168      10.89662247       0.00000000 NULL      -0.00614900      -0.00236200      -0.00197100
P        3.51994333       1.26988306      10.89662247       0.00000000 NULL       0.00614900      -0.00236200      -0.00197100
P        2.01643249       1.26988306       1.85156710       0.00000000 NULL      -0.00614900      -0.00236200       0.00197100
P        1.07930762       3.30217386       4.63503882       0.00000000 NULL      -0.00464800      -0.00100800       0.00206500
P        4.45706820       3.30217386       8.11315075       0.00000000 NULL       0.00464800      -0.00100800      -0.00206500
P        1.07930762       8.97358247       8.11315075       0.00000000 NULL      -0.00464800      -0.00100900      -0.00206500
P        4.45706820       8.97358247       4.63503882       0.00000000 NULL       0.00464800      -0.00100900       0.00206500
P        0.50061225       4.08064227       2.55179139       0.00000000 NULL       0.00299000       0.00189100      -0.00179300
P        5.03576357       4.08064227      10.19639818       0.00000000 NULL      -0.00299000       0.00189100       0.00179300
P        0.50061225       9.75205089      10.19639818       0.00000000 NULL       0.00299000       0.00189100       0.00179300
P        5.03576357       9.75205089       2.55179139       0.00000000 NULL      -0.00299000       0.00189100      -0.00179300
P        3.98346871      11.93727288       8.80917980       0.00000000 NULL      -0.00043800       0.00184300      -0.00056500
P        1.55290711      11.93727288       3.93900977       0.00000000 NULL       0.00043800       0.00184300       0.00056500
P        3.98346871       6.26586426       3.93900977       0.00000000 NULL      -0.00043800       0.00184200       0.00056500
P        1.55290711       6.26586426       8.80917980       0.00000000 NULL       0.00043800       0.00184200      -0.00056500
P        1.65496846       4.11852250       9.59950571       0.00000000 NULL       0.00047600       0.00099700      -0.00193000
P        3.88140736       4.11852250       3.14868386       0.00000000 NULL      -0.00047600       0.00099700       0.00193000
P        1.65496846       9.78993111       3.14868386       0.00000000 NULL       0.00047600       0.00099600       0.00192900
P        3.88140736       9.78993111       9.59950571       0.00000000 NULL      -0.00047600       0.00099600      -0.00192900
P        4.41786285      10.61703905       6.26873170       0.00000000 NULL       0.00220200      -0.00263300      -0.00162100
P        1.11851298      10.61703905       6.47945787       0.00000000 NULL      -0.00220200      -0.00263300       0.00162100
P        4.41786285       4.94563043       6.47945787       0.00000000 NULL       0.00220200      -0.00263300       0.00162100
P        1.11851298       4.94563043       6.26873170       0.00000000 NULL      -0.00220200      -0.00263300      -0.00162100
P        4.43691051       8.66560974       7.72567329       0.00000000 NULL       0.00477100      -0.00095300       0.00198400
P        1.09946531       8.66560974       5.02251628       0.00000000 NULL      -0.00477100      -0.00095300      -0.00198400
P        4.43691051       2.99420113       5.02251628       0.00000000 NULL       0.00477000      -0.00095200      -0.00198400
P        1.09946531       2.99420113       7.72567329       0.00000000 NULL      -0.00477000      -0.00095200       0.00198400
