5
Lattice="3.3269200000000008 -5.290883130628816e-16 -7.22541788636276e-16 0.7562162278553152 5.226535710997132 -2.3666154547772685e-15 0.3955631433184961 2.342438406301964 6.5745828981335" Properties=species:S:1:pos:R:3:initial_magmoms:R:1:castep_labels:S:1 n_minim_iter=1 pbc="T T T"
P        1.51111148       6.97567438       6.11092951       0.00000000 NULL
P        2.19107142       5.11173846       6.52669955       0.00000000 NULL
P        0.50281135       1.42568892       0.75590741       0.00000000 NULL
P        2.54413944       3.15065143       5.97081265       0.00000000 NULL
P        1.12344395       2.89749129       2.21682509       0.00000000 NULL
5
Lattice="3.3297916757588655 -0.001001372952930068 1.5128984922523205e-05 0.7552958258953866 5.235360667364065 4.6242534166693986e-05 0.3952294236592721 2.3464303869149923 6.576669715811658" Properties=species:S:1:pos:R:3:initial_magmoms:R:1:castep_labels:S:1 n_minim_iter=2 pbc="T T T"
P        1.51046137       6.98740865       6.11275179       0.00000000 NULL
P        2.19163395       5.12017904       6.52897177       0.00000000 NULL
P        0.50264434       1.42786459       0.75635522       0.00000000 NULL
P        2.54525175       3.15525543       5.97251695       0.00000000 NULL
P        1.12359193       2.90222481       2.21755562       0.00000000 NULL
5
Lattice="3.4765138940174567 -0.05473841323013077 0.00110172910968283 0.7042261165011127 5.695926521843695 0.002152240975080857 0.3769861648673815 2.5542712630010183 6.680317535381236" Properties=species:S:1:pos:R:3:initial_magmoms:R:1:castep_labels:S:1 n_minim_iter=3 pbc="T T T"
P        1.47253398       7.59920723       6.20290087       0.00000000 NULL
P        2.21707960       5.55991584       6.64215919       0.00000000 NULL
P        0.49300924       1.54098735       0.77885747       0.00000000 NULL
P        2.60008386       3.39398793       6.05709930       0.00000000 NULL
P        1.12916095       3.14881614       2.25373008       0.00000000 NULL
5
Lattice="3.528836065684064 -0.10526558639050448 0.01814474119776406 0.6367417166335122 5.902638411324063 -0.018679328735519467 0.38131167540684063 2.6149779417537524 6.640468377988056" Properties=species:S:1:pos:R:3:initial_magmoms:R:1:castep_labels:S:1 n_minim_iter=4 pbc="T T T"
P        1.42490234       7.84185962       6.14271335       0.00000000 NULL
P        2.21088399       5.71586876       6.60794977       0.00000000 NULL
P        0.47885328       1.58547152       0.77987005       0.00000000 NULL
P        2.61762575       3.45427471       6.02134278       0.00000000 NULL
P        1.11688485       3.24050399       2.22962433       0.00000000 NULL
5
Lattice="3.550967539983496 -0.18766155704749024 0.054931366997564665 0.5123295567170114 6.095925232720057 -0.0642794845425683 0.3986260773798715 2.632322924658351 6.508932594871794" Properties=species:S:1:pos:R:3:initial_magmoms:R:1:castep_labels:S:1 n_minim_iter=5 pbc="T T T"
P        1.33110995       8.02876965       5.97606883       0.00000000 NULL
P        2.17340706       5.81265384       6.48196340       0.00000000 NULL
P        0.45033515       1.61851852       0.76949307       0.00000000 NULL
P        2.61822234       3.45154514       5.90909337       0.00000000 NULL
P        1.08261229       3.30220527       2.16323009       0.00000000 NULL
5
Lattice="3.5195168782941826 -0.2873812632240526 0.11807985781308311 0.34852276059079645 6.229466122207288 -0.12963392438244478 0.44946799589556535 2.590208931504511 6.298539574471416" Properties=species:S:1:pos:R:3:initial_magmoms:R:1:castep_labels:S:1 n_minim_iter=6 pbc="T T T"
P        1.21951004       8.10478058       5.72202654       0.00000000 NULL
P        2.12449207       5.82208361       6.27891046       0.00000000 NULL
P        0.41165659       1.62370531       0.74996932       0.00000000 NULL
P        2.61207024       3.36871309       5.73856797       0.00000000 NULL
P        1.03684850       3.31394695       2.06348168       0.00000000 NULL
5
Lattice="3.4954048184191824 -0.3254276808501892 0.15958672372342658 0.2832717502379846 6.335781522686657 -0.15537569412329058 0.5018380855591501 2.592960634073085 6.328718099154812" Properties=species:S:1:pos:R:3:initial_magmoms:R:1:castep_labels:S:1 n_minim_iter=7 pbc="T T T"
P        1.19650935       8.20120792       5.72730500       0.00000000 NULL
P        2.13297099       5.89876825       6.31118432       0.00000000 NULL
P        0.39592715       1.62110017       0.76418903       0.00000000 NULL
P        2.63631799       3.35736786       5.78172270       0.00000000 NULL
P        1.03134204       3.34977766       2.06973208       0.00000000 NULL
