15
Lattice="6.973499999999998 9.239448851441605e-16 0.0 -3.4867499999999993 6.0392281532907806 0.0 0.0 0.0 7.758239999999999" Properties=species:S:1:pos:R:3:initial_magmoms:R:1:castep_labels:S:1 n_minim_iter=1 pbc="T T T"
P        5.61534846       1.61729624       7.05812323       0.00000000 NULL
P        2.76520614       4.05438630       7.05812323       0.00000000 NULL
P        2.07969540       0.36754562       7.05812323       0.00000000 NULL
P        0.55763139       2.82037692       4.19685717       0.00000000 NULL
P        0.76541624       5.11196265       4.19685717       0.00000000 NULL
P       -1.32304764       4.14611674       4.19685717       0.00000000 NULL
P        4.80414457       3.00965901       2.38577517       0.00000000 NULL
P        1.96498655       2.65568174       2.38577517       0.00000000 NULL
P        3.69111887       0.37388741       2.38577517       0.00000000 NULL
P       -0.93431511       5.35068488       1.11189311       0.00000000 NULL
P       -0.67992148       2.55474510       1.11189311       0.00000000 NULL
P        1.61423659       4.17302633       1.11189311       0.00000000 NULL
P        4.84062922       0.43705169       5.58254633       0.00000000 NULL
P        4.17468752       3.97358203       5.58254633       0.00000000 NULL
P        1.44493325       1.62859443       5.58254633       0.00000000 NULL
15
Lattice="6.9786399543049615 -1.3439999351836355e-15 0.0 -3.4893199771524794 6.043679484293171 0.0 0.0 0.0 7.7685893757967746" Properties=species:S:1:pos:R:3:initial_magmoms:R:1:castep_labels:S:1 n_minim_iter=2 pbc="T T T"
P        5.61949841       1.61855566       7.06763225       0.00000000 NULL
P        2.76718043       4.05735056       7.06763225       0.00000000 NULL
P        2.08128109       0.36777327       7.06763225       0.00000000 NULL
P        0.55800641       2.82256220       4.20229404       0.00000000 NULL
P        0.76590620       5.11564611       4.20229404       0.00000000 NULL
P       -1.32391262       4.14915066       4.20229404       0.00000000 NULL
P        4.80749953       3.01194361       2.38905996       0.00000000 NULL
P        1.96647051       2.65744492       2.38905996       0.00000000 NULL
P        3.69398989       0.37429096       2.38905996       0.00000000 NULL
P       -0.93513463       5.35448520       1.11327707       0.00000000 NULL
P       -0.68023291       2.55658654       1.11327707       0.00000000 NULL
P        1.61536754       4.17628723       1.11327707       0.00000000 NULL
P        4.84420696       0.43745073       5.59005854       0.00000000 NULL
P        4.17769303       3.97648093       5.59005854       0.00000000 NULL
P        1.44605994       1.62974783       5.59005854       0.00000000 NULL
15
Lattice="7.115008018027506 4.966616717727911e-16 0.0 -3.5575040090137535 6.161777691741789 0.0 0.0 0.0 8.046115243858626" Properties=species:S:1:pos:R:3:initial_magmoms:R:1:castep_labels:S:1 n_minim_iter=3 pbc="T T T"
P        5.72958836       1.65202038       7.32275933       0.00000000 NULL
P        2.81952222       4.13595889       7.32275933       0.00000000 NULL
P        2.12340144       0.37379843       7.32275933       0.00000000 NULL
P        0.56793767       2.88067498       4.34787368       0.00000000 NULL
P        0.77879746       5.21328865       4.34787368       0.00000000 NULL
P       -1.34673513       4.22959175       4.34787368       0.00000000 NULL
P        4.89636792       3.07262387       2.47725037       0.00000000 NULL
P        2.00585373       2.70406707       2.47725037       0.00000000 NULL
P        3.77029038       0.38508675       2.47725037       0.00000000 NULL
P       -0.95696914       5.45516760       1.15028884       0.00000000 NULL
P       -0.68832514       2.60543431       1.15028884       0.00000000 NULL
P        1.64529428       4.26295348       1.15028884       0.00000000 NULL
P        4.93915653       0.44814548       5.79157527       0.00000000 NULL
P        4.25732438       4.05336229       5.79157527       0.00000000 NULL
P        1.47603111       1.66026992       5.79157527       0.00000000 NULL
15
Lattice="7.101937179832781 3.864709506615659e-16 0.0 -3.550968589916391 6.150458013816402 0.0 0.0 0.0 8.07486871606615" Properties=species:S:1:pos:R:3:initial_magmoms:R:1:castep_labels:S:1 n_minim_iter=4 pbc="T T T"
P        5.71851844       1.64973611       7.35161341       0.00000000 NULL
P        2.81396458       4.12751419       7.35161341       0.00000000 NULL
P        2.12042275       0.37320772       7.35161341       0.00000000 NULL
P        0.56661983       2.87798754       4.35943514       0.00000000 NULL
P        0.77524835       5.20217141       4.35943514       0.00000000 NULL
P       -1.34186819       4.22075708       4.35943514       0.00000000 NULL
P        4.88466896       3.06809933       2.48804733       0.00000000 NULL
P        2.00255074       2.69619774       2.48804733       0.00000000 NULL
P        3.76568607       0.38616094       2.48804733       0.00000000 NULL
P       -0.95680035       5.44235244       1.15265395       0.00000000 NULL
P       -0.68384671       2.60066838       1.15265395       0.00000000 NULL
P        1.64064706       4.25789520       1.15265395       0.00000000 NULL
P        4.93065213       0.44956040       5.81336366       0.00000000 NULL
P        4.24728038       4.04528981       5.81336366       0.00000000 NULL
P        1.47497325       1.65560781       5.81336366       0.00000000 NULL
15
Lattice="7.0430598062890475 2.6334377091800307e-16 0.0 -3.521529903144524 6.099468712619423 0.0 0.0 0.0 8.13199947010137" Properties=species:S:1:pos:R:3:initial_magmoms:R:1:castep_labels:S:1 n_minim_iter=5 pbc="T T T"
P        5.66937719       1.63848088       7.41199672       0.00000000 NULL
P        2.78940514       4.09058423       7.41199672       0.00000000 NULL
P        2.10580738       0.37040360       7.41199672       0.00000000 NULL
P        0.56145767       2.86159856       4.37826127       0.00000000 NULL
P        0.76258402       5.15490604       4.37826127       0.00000000 NULL
P       -1.32404170       4.18243283       4.37826127       0.00000000 NULL
P        4.83624841       3.04593790       2.51140361       0.00000000 NULL
P        1.98707601       2.66534503       2.51140361       0.00000000 NULL
P        3.74126529       0.38818579       2.51140361       0.00000000 NULL
P       -0.95333647       5.38877539       1.15576167       0.00000000 NULL
P       -0.66861825       2.57946741       1.15576167       0.00000000 NULL
P        1.62195472       4.23069462       1.15576167       0.00000000 NULL
P        4.89147276       0.45229103       5.85743616       0.00000000 NULL
P        4.20562791       4.00999416       5.85743616       0.00000000 NULL
P        1.46748904       1.63718353       5.85743616       0.00000000 NULL
15
Lattice="6.788079617637047 3.572282809305967e-16 0.0 -3.394039808818524 5.878649391785042 0.0 0.0 0.0 8.366446761013723" Properties=species:S:1:pos:R:3:initial_magmoms:R:1:castep_labels:S:1 n_minim_iter=6 pbc="T T T"
P        5.45723220       1.59380036       7.66511567       0.00000000 NULL
P        2.67919192       3.92920154       7.66511567       0.00000000 NULL
P        2.04569531       0.35564749       7.66511567       0.00000000 NULL
P        0.54371419       2.78306442       4.45164988       0.00000000 NULL
P        0.71197823       4.95798748       4.45164988       0.00000000 NULL
P       -1.25569242       4.01624688       4.45164988       0.00000000 NULL
P        4.62723946       2.94938246       2.60775598       0.00000000 NULL
P        1.92021975       2.53261570       2.60775598       0.00000000 NULL
P        3.63466021       0.39665124       2.60775598       0.00000000 NULL
P       -0.93634042       5.15598664       1.16956065       0.00000000 NULL
P       -0.60300539       2.48976149       1.16956065       0.00000000 NULL
P        1.53934581       4.11155067       1.16956065       0.00000000 NULL
P        4.72105559       0.45873203       6.03528918       0.00000000 NULL
P        4.03027823       3.85918807       6.03528918       0.00000000 NULL
P        1.43078560       1.56072930       6.03528918       0.00000000 NULL
15
Lattice="6.91713237201796 5.501235511482802e-16 0.0 -3.4585661860089805 5.9904123555072655 0.0 0.0 0.0 8.365858145181473" Properties=species:S:1:pos:R:3:initial_magmoms:R:1:castep_labels:S:1 n_minim_iter=7 pbc="T T T"
P        5.56251828       1.64231482       7.68282145       0.00000000 NULL
P        2.71358687       3.99612473       7.68282145       0.00000000 NULL
P        2.09959340       0.35197281       7.68282145       0.00000000 NULL
P        0.57383093       2.81037085       4.43245225       0.00000000 NULL
P        0.73779817       5.08217910       4.43245225       0.00000000 NULL
P       -1.31162910       4.08827477       4.43245225       0.00000000 NULL
P        4.69517289       3.01139123       2.61216629       0.00000000 NULL
P        1.96160462       2.56044339       2.61216629       0.00000000 NULL
P        3.71892104       0.41857774       2.61216629       0.00000000 NULL
P       -0.96176889       5.23368935       1.16764569       0.00000000 NULL
P       -0.59305730       2.54065139       1.16764569       0.00000000 NULL
P        1.55482619       4.20648398       1.16764569       0.00000000 NULL
P        4.80958099       0.46421326       6.03274284       0.00000000 NULL
P        4.11032140       3.93311269       6.03274284       0.00000000 NULL
P        1.45579617       1.59308640       6.03274284       0.00000000 NULL
15
Lattice="6.766562097604575 1.3453416361967024e-15 0.0 -3.383281048802288 5.860014672810479 0.0 0.0 0.0 8.185778069873049" Properties=species:S:1:pos:R:3:initial_magmoms:R:1:castep_labels:S:1 n_minim_iter=8 pbc="T T T"
P        5.44059969       1.60797468       7.51912967       0.00000000 NULL
P        2.65371533       3.90771020       7.51912967       0.00000000 NULL
P        2.05552813       0.34432979       7.51912967       0.00000000 NULL
P        0.56244127       2.74973391       4.33417555       0.00000000 NULL
P        0.72072099       4.97223615       4.33417555       0.00000000 NULL
P       -1.28316227       3.99805929       4.33417555       0.00000000 NULL
P        4.59170511       2.94634113       2.55532206       0.00000000 NULL
P        1.91910328       2.50336271       2.55532206       0.00000000 NULL
P        3.63903476       0.41031084       2.55532206       0.00000000 NULL
P       -0.94026643       5.11718618       1.14379527       0.00000000 NULL
P       -0.57819896       2.48712697       1.14379527       0.00000000 NULL
P        1.51846539       4.11571620       1.14379527       0.00000000 NULL
P        4.70568081       0.45525309       5.90339642       0.00000000 NULL
P        4.01946096       3.84761258       5.90339642       0.00000000 NULL
P        1.42470138       1.55714901       5.90339642       0.00000000 NULL
15
Lattice="6.792636987292999 -4.803767983612423e-16 0.0 -3.3963184936464987 5.882596189681532 0.0 0.0 0.0 8.309801353118054" Properties=species:S:1:pos:R:3:initial_magmoms:R:1:castep_labels:S:1 n_minim_iter=9 pbc="T T T"
P        5.46164424       1.61570423       7.63381830       0.00000000 NULL
P        2.66257396       3.92207055       7.63381830       0.00000000 NULL
P        2.06473728       0.34482142       7.63381830       0.00000000 NULL
P        0.56518826       2.75975710       4.39815136       0.00000000 NULL
P        0.72370460       4.99218503       4.39815136       0.00000000 NULL
P       -1.28889287       4.01325024       4.39815136       0.00000000 NULL
P        4.60737521       2.95799782       2.59394189       0.00000000 NULL
P        1.92724812       2.51110507       2.59394189       0.00000000 NULL
P        3.65433214       0.41349330       2.59394189       0.00000000 NULL
P       -0.94465709       5.13507404       1.16192721       0.00000000 NULL
P       -0.57845753       2.49696213       1.16192721       0.00000000 NULL
P        1.52311462       4.13315621       1.16192721       0.00000000 NULL
P        4.72371597       0.45690203       5.99305879       0.00000000 NULL
P        4.03509024       3.86240702       5.99305879       0.00000000 NULL
P        1.43014927       1.56328715       5.99305879       0.00000000 NULL
