8
Lattice="5.12506 -7.850183593624388e-17 -4.6109071083879304e-17 0.17870270340720118 6.039926948953518 7.28041800593002e-16 0.17870270340720118 2.1735453903617232 5.635283310068116" Properties=species:S:1:pos:R:3:initial_magmoms:R:1:castep_labels:S:1 n_minim_iter=1 pbc="T T T"
P        1.66881961       2.47090561       5.02532926       0.00000000 NULL
P        3.81364580       2.63562680       5.13834487       0.00000000 NULL
P        4.53264464       5.88377227       1.41405657       0.00000000 NULL
P        0.94982077       4.77679907       0.65455957       0.00000000 NULL
P        5.26113546       2.28280774       3.67962586       0.00000000 NULL
P        0.22132995       3.95886452       4.82957249       0.00000000 NULL
P        4.48043288       6.70210871       4.90587816       0.00000000 NULL
P        1.00203253       1.22442245       1.14762432       0.00000000 NULL
8
Lattice="5.137827655669412 -0.002098744608440769 -0.001439953770517923 0.17667450285243774 6.056612199133572 0.002501075714855338 0.17667450285243777 2.1818833088952827 5.649950691150987" Properties=species:S:1:pos:R:3:initial_magmoms:R:1:castep_labels:S:1 n_minim_iter=2 pbc="T T T"
P        1.67095489       2.47902449       5.03810657       0.00000000 NULL
P        3.82022177       2.64370825       5.15109649       0.00000000 NULL
P        4.54090701       5.89892645       1.41907855       0.00000000 NULL
P        0.95026965       4.78958453       0.65795637       0.00000000 NULL
P        5.27218837       2.28828671       3.68750602       0.00000000 NULL
P        0.21898830       3.97246503       4.84302485       0.00000000 NULL
P        4.48744793       6.72067485       4.91941736       0.00000000 NULL
P        1.00372873       1.22803346       1.15090277       0.00000000 NULL
8
Lattice="5.451427042273373 -0.05588567640540582 -0.038343298243274634 0.12422085729725436 6.4689301389667335 0.06610613200920863 0.12422085729725439 2.3896050711388965 6.011756379587304" Properties=species:S:1:pos:R:3:initial_magmoms:R:1:castep_labels:S:1 n_minim_iter=3 pbc="T T T"
P        1.72116299       2.68030314       5.35298758       0.00000000 NULL
P        3.97870577       2.84374268       5.46512385       0.00000000 NULL
P        4.74072734       6.27248783       1.54375341       0.00000000 NULL
P        0.95914142       5.10508415       0.74279491       0.00000000 NULL
P        5.54158389       2.42248279       3.88028213       0.00000000 NULL
P        0.15828487       4.31056451       5.17569958       0.00000000 NULL
P        4.65549163       7.17922763       5.25370244       0.00000000 NULL
P        1.04437713       1.31738040       1.23187483       0.00000000 NULL
8
Lattice="5.533915624222831 -0.09082102033541305 -0.062312522518603766 0.08592550218351656 6.600375827574047 0.10964795889657404 0.08592550218351658 2.477532243999093 6.118726805476674" Properties=species:S:1:pos:R:3:initial_magmoms:R:1:castep_labels:S:1 n_minim_iter=4 pbc="T T T"
P        1.70976043       2.75732667       5.44681083       0.00000000 NULL
P        3.99600620       2.91292471       5.55356702       0.00000000 NULL
P        4.76834212       6.38330616       1.59075041       0.00000000 NULL
P        0.93742451       5.20579382       0.78285633       0.00000000 NULL
P        5.59154272       2.46019168       3.92590486       0.00000000 NULL
P        0.11422391       4.43886575       5.28347794       0.00000000 NULL
P        4.66149883       7.33239909       5.36231098       0.00000000 NULL
P        1.04426781       1.34536486       1.25459226       0.00000000 NULL
8
Lattice="5.5651048532015635 -0.1285618660724722 -0.08820660839405896 0.04253511227434952 6.653324114715803 0.15200926166755546 0.042535112274349536 2.53610968225832 6.152883573630101" Properties=species:S:1:pos:R:3:initial_magmoms:R:1:castep_labels:S:1 n_minim_iter=5 pbc="T T T"
P        1.67603213       2.80050928       5.47695272       0.00000000 NULL
P        3.97414295       2.94304722       5.57474835       0.00000000 NULL
P        4.74991711       6.41499545       1.61457583       0.00000000 NULL
P        0.90025797       5.24594566       0.81248793       0.00000000 NULL
P        5.58570497       2.46479489       3.92333164       0.00000000 NULL
P        0.06447011       4.51339493       5.32888111       0.00000000 NULL
P        4.61933669       7.39774184       5.40572243       0.00000000 NULL
P        1.03083839       1.35513220       1.25987329       0.00000000 NULL
8
Lattice="5.58051240597441 -0.1751027059438932 -0.12013839160693544 -0.011776427811606432 6.681493663447632 0.2039220882366001 -0.011776427811606437 2.594681794293372 6.160484411077114" Properties=species:S:1:pos:R:3:initial_magmoms:R:1:castep_labels:S:1 n_minim_iter=6 pbc="T T T"
P        1.62549135       2.83852188       5.48519191       0.00000000 NULL
P        3.93146820       2.96188153       5.56982926       0.00000000 NULL
P        4.70991522       6.41749961       1.63390735       0.00000000 NULL
P        0.84704433       5.26720892       0.84469012       0.00000000 NULL
P        5.55403462       2.45570779       3.89741430       0.00000000 NULL
P        0.00292493       4.58104688       5.35561461       0.00000000 NULL
P        4.54901478       7.43893803       5.42930019       0.00000000 NULL
P        1.00794478       1.35850987       1.25750367       0.00000000 NULL
8
Lattice="5.638414802916906 -0.24921186856899522 -0.17098486798274548 -0.09709574380719499 6.745433114067943 0.2876872638558924 -0.097095743807195 2.69584457315715 6.189996275889699" Properties=species:S:1:pos:R:3:initial_magmoms:R:1:castep_labels:S:1 n_minim_iter=7 pbc="T T T"
P        1.55408653       2.90860948       5.51963630       0.00000000 NULL
P        3.89013679       2.99551587       5.57926298       0.00000000 NULL
P        4.68523909       6.43889889       1.67034273       0.00000000 NULL
P        0.75898422       5.31650678       0.90026677       0.00000000 NULL
P        5.53426762       2.44586983       3.86203741       0.00000000 NULL
P       -0.09004431       4.70858709       5.41449321       0.00000000 NULL
P        4.47149639       7.53129378       5.48306627       0.00000000 NULL
P        0.97272693       1.36610350       1.25311425       0.00000000 NULL
8
Lattice="5.688035429300417 -0.25444138587395443 -0.17457285250024196 -0.1015285821389903 6.747241296615086 0.2921038635710704 -0.1015285821389903 2.700615981445037 6.19009394941828" Properties=species:S:1:pos:R:3:initial_magmoms:R:1:castep_labels:S:1 n_minim_iter=8 pbc="T T T"
P        1.55442843       2.91356246       5.53609407       0.00000000 NULL
P        3.93054983       2.97972837       5.58149065       0.00000000 NULL
P        4.75426281       6.43291428       1.67202781       0.00000000 NULL
P        0.73071546       5.31843830       0.90738313       0.00000000 NULL
P        5.56974126       2.43472365       3.84502864       0.00000000 NULL
P       -0.08476299       4.72981752       5.41969812       0.00000000 NULL
P        4.52227599       7.54971682       5.48381963       0.00000000 NULL
P        0.96270227       1.36012091       1.23712285       0.00000000 NULL
