16
Lattice="5.90954 7.276519767216589e-16 -1.7525553117620004e-15 -0.805204433273187 7.311737078440196 1.8365411667898772e-16 -2.1928032502211128 -3.2884015023093 8.482864504772532" Properties=species:S:1:pos:R:3:initial_magmoms:R:1:castep_labels:S:1 n_minim_iter=1 pbc="T T T"
P        3.12499493       0.57238845       7.73417706       0.00000000 NULL
P       -0.39940038       1.46918364       8.39296226       0.00000000 NULL
P       -0.55686346      -0.47516072       7.78071491       0.00000000 NULL
P        2.37608063       4.80543760       2.10824971       0.00000000 NULL
P        3.59999436      -1.64290436       6.75460302       0.00000000 NULL
P        2.37635415       2.84740843       1.49427694       0.00000000 NULL
P        1.22700645       1.34651972       2.31602645       0.00000000 NULL
P        1.64205769       4.63405532       5.40680648       0.00000000 NULL
P       -1.38205061      -0.00850353       5.06811624       0.00000000 NULL
P        2.97213364      -0.42547540       3.07052211       0.00000000 NULL
P        0.47973225       1.32429128       6.37812416       0.00000000 NULL
P        0.15137163       3.62046718       4.53027464       0.00000000 NULL
P        2.37136678       2.65305600       4.76561729       0.00000000 NULL
P       -0.92904230       1.96838911       5.01835745       0.00000000 NULL
P        3.46814704       2.02303101       6.34715492       0.00000000 NULL
P        4.39985763       5.13077610       1.91781788       0.00000000 NULL
16
Lattice="5.921084722722737 0.004903199947455866 0.001764425666656635 -0.8007108437651055 7.329654344354373 -0.0023172047734936556 -2.1972827209961054 -3.3009889551526705 8.498273567479929" Properties=species:S:1:pos:R:3:initial_magmoms:R:1:castep_labels:S:1 n_minim_iter=2 pbc="T T T"
P        3.13380853       0.57400220       7.74896583       0.00000000 NULL
P       -0.39659935       1.47054028       8.40739611       0.00000000 NULL
P       -0.55590847      -0.47920886       7.79455047       0.00000000 NULL
P        2.38530426       4.81923204       2.11148999       0.00000000 NULL
P        3.60771757      -1.64587856       6.76830585       0.00000000 NULL
P        2.38394160       2.85589320       1.49675735       0.00000000 NULL
P        1.23116030       1.35016595       2.32024892       0.00000000 NULL
P        1.65080830       4.64567699       5.41559663       0.00000000 NULL
P       -1.38331391      -0.01150226       5.07663468       0.00000000 NULL
P        2.97847478      -0.42481916       3.07704197       0.00000000 NULL
P        0.48398841       1.32607000       6.38933735       0.00000000 NULL
P        0.15587704       3.62868160       4.53712694       0.00000000 NULL
P        2.37941828       2.66051028       4.77383228       0.00000000 NULL
P       -0.92771715       1.97132161       5.02629235       0.00000000 NULL
P        3.47844216       2.02942140       6.35914128       0.00000000 NULL
P        4.41339776       5.14692467       1.92109923       0.00000000 NULL
16
Lattice="6.146344204769921 0.10472328764554863 0.036700415509166556 -0.7078984924122008 7.680178165414319 -0.04891948422194897 -2.2862644323558867 -3.5503348433539625 8.797333943447436" Properties=species:S:1:pos:R:3:initial_magmoms:R:1:castep_labels:S:1 n_minim_iter=3 pbc="T T T"
P        3.30679580       0.60607267       8.03600051       0.00000000 NULL
P       -0.34026506       1.49581507       8.68659331       0.00000000 NULL
P       -0.53689859      -0.56012148       8.06277257       0.00000000 NULL
P        2.56899116       5.09084099       2.17361135       0.00000000 NULL
P        3.75793270      -1.70272959       7.03473175       0.00000000 NULL
P        2.53404986       3.02304645       1.54452124       0.00000000 NULL
P        1.31338204       1.42190436       2.40201213       0.00000000 NULL
P        1.82535540       4.87353325       5.58509184       0.00000000 NULL
P       -1.40776412      -0.07230250       5.24151593       0.00000000 NULL
P        3.10218433      -0.41037397       3.20386369       0.00000000 NULL
P        0.56872165       1.36011206       6.60651730       0.00000000 NULL
P        0.24664345       3.78914743       4.66893294       0.00000000 NULL
P        2.53857782       2.80742356       4.93252578       0.00000000 NULL
P       -0.89998218       2.02748899       5.17938190       0.00000000 NULL
P        3.68130124       2.15593122       6.59162974       0.00000000 NULL
P        4.68135500       5.46582107       1.98415707       0.00000000 NULL
16
Lattice="6.16619072130401 0.15599413627400713 0.04482495582212013 -0.6471664452712164 7.699808177312127 -0.06784285813204008 -2.310496312836892 -3.6019998336795367 8.820794315138247" Properties=species:S:1:pos:R:3:initial_magmoms:R:1:castep_labels:S:1 n_minim_iter=4 pbc="T T T"
P        3.33348724       0.61264059       8.05776777       0.00000000 NULL
P       -0.32024120       1.48103001       8.69887678       0.00000000 NULL
P       -0.53068586      -0.58532851       8.08061522       0.00000000 NULL
P        2.62291493       5.12673724       2.17097895       0.00000000 NULL
P        3.76574480      -1.69073089       7.05917769       0.00000000 NULL
P        2.56918438       3.04459803       1.54347636       0.00000000 NULL
P        1.33368095       1.43061833       2.40605396       0.00000000 NULL
P        1.87978991       4.89018006       5.58720382       0.00000000 NULL
P       -1.40723456      -0.10118725       5.25007092       0.00000000 NULL
P        3.11197916      -0.39080009       3.21609068       0.00000000 NULL
P        0.59408538       1.35081787       6.61860543       0.00000000 NULL
P        0.28354533       3.79495176       4.66765845       0.00000000 NULL
P        2.57272759       2.82836291       4.93733347       0.00000000 NULL
P       -0.87820200       2.01449515       5.18287178       0.00000000 NULL
P        3.71811479       2.17953027       6.60860671       0.00000000 NULL
P        4.74282817       5.51784513       1.98213589       0.00000000 NULL
16
Lattice="6.163232924410245 0.2068828711196049 0.05036070434995997 -0.583799976710711 7.67792427409303 -0.08642949815574029 -2.329769846949631 -3.6348475987794475 8.812434976520018" Properties=species:S:1:pos:R:3:initial_magmoms:R:1:castep_labels:S:1 n_minim_iter=5 pbc="T T T"
P        3.34485178       0.61547260       8.04821469       0.00000000 NULL
P       -0.30255024       1.45792377       8.67858163       0.00000000 NULL
P       -0.52572985      -0.60732563       8.06875613       0.00000000 NULL
P        2.66684464       5.13528328       2.15898895       0.00000000 NULL
P        3.75697829      -1.66932949       7.05571177       0.00000000 NULL
P        2.59390991       3.04927863       1.53569189       0.00000000 NULL
P        1.34856899       1.43172346       2.40044963       0.00000000 NULL
P        1.92501048       4.88031314       5.56765504       0.00000000 NULL
P       -1.40389114      -0.12983131       5.23988829       0.00000000 NULL
P        3.10894919      -0.36874720       3.21512943       0.00000000 NULL
P        0.61472480       1.33384018       6.60594256       0.00000000 NULL
P        0.31784168       3.78018799       4.64900164       0.00000000 NULL
P        2.59532682       2.83421496       4.92263067       0.00000000 NULL
P       -0.85485549       1.99008713       5.16735155       0.00000000 NULL
P        3.73850008       2.19107439       6.59977049       0.00000000 NULL
P        4.78583325       5.54030903       1.97077114       0.00000000 NULL
16
Lattice="6.156814441791105 0.2761483116371688 0.058573955100751696 -0.4972248997425198 7.640585475771098 -0.11360591556221987 -2.3541416619884714 -3.6782319965449997 8.796566446503107" Properties=species:S:1:pos:R:3:initial_magmoms:R:1:castep_labels:S:1 n_minim_iter=6 pbc="T T T"
P        3.35961482       0.61683382       8.03087290       0.00000000 NULL
P       -0.27705551       1.42302062       8.64562534       0.00000000 NULL
P       -0.51798998      -0.63866929       8.04805813       0.00000000 NULL
P        2.72610800       5.14136660       2.14032933       0.00000000 NULL
P        3.74454089      -1.64028701       7.04757013       0.00000000 NULL
P        2.62640290       3.05222584       1.52394045       0.00000000 NULL
P        1.36866846       1.43146384       2.39120833       0.00000000 NULL
P        1.98606669       4.86125282       5.53692063       0.00000000 NULL
P       -1.39837673      -0.16975532       5.22311558       0.00000000 NULL
P        3.10413780      -0.33901672       3.21232944       0.00000000 NULL
P        0.64343313       1.30797944       6.58479079       0.00000000 NULL
P        0.36517781       3.75511220       4.62036166       0.00000000 NULL
P        2.62580109       2.83800475       4.89918336       0.00000000 NULL
P       -0.82189729       1.95367667       5.14242729       0.00000000 NULL
P        3.76554549       2.20267748       6.58393214       0.00000000 NULL
P        4.84276846       5.56498110       1.95337284       0.00000000 NULL
16
Lattice="6.145833004141051 0.43430140347140056 0.08005625616352274 -0.30004946342872757 7.560241208105839 -0.18115196893207847 -2.4072353517587715 -3.785442911223848 8.758573577242652" Properties=species:S:1:pos:R:3:initial_magmoms:R:1:castep_labels:S:1 n_minim_iter=7 pbc="T T T"
P        3.39748422       0.61484727       7.98984213       0.00000000 NULL
P       -0.21410048       1.33893235       8.56640780       0.00000000 NULL
P       -0.49742357      -0.71629447       7.99809178       0.00000000 NULL
P        2.86449222       5.15677055       2.09419351       0.00000000 NULL
P        3.72213062      -1.58031532       7.02874787       0.00000000 NULL
P        2.70154247       3.05946531       1.49619150       0.00000000 NULL
P        1.41632956       1.43076107       2.36882715       0.00000000 NULL
P        2.12760438       4.81887302       5.46245382       0.00000000 NULL
P       -1.38481779      -0.26366478       5.18312480       0.00000000 NULL
P        3.09714335      -0.27352472       3.20616597       0.00000000 NULL
P        0.71248220       1.24613575       6.53393624       0.00000000 NULL
P        0.47607688       3.69671934       4.55169159       0.00000000 NULL
P        2.69953373       2.84375769       4.84232866       0.00000000 NULL
P       -0.74419976       1.86884324       5.08105106       0.00000000 NULL
P        3.83227469       2.22455897       6.54572624       0.00000000 NULL
P        4.97623433       5.62307302       1.91128791       0.00000000 NULL
16
Lattice="6.168932142841704 0.7062543131469472 0.12765794308670217 0.033284204568756644 7.513869569759728 -0.335942653188038 -2.4988065337436 -4.054222886098017 8.696374499076393" Properties=species:S:1:pos:R:3:initial_magmoms:R:1:castep_labels:S:1 n_minim_iter=8 pbc="T T T"
P        3.49298287       0.57481674       7.91674559       0.00000000 NULL
P       -0.09108207       1.17671696       8.41179435       0.00000000 NULL
P       -0.45239279      -0.89661811       7.90557695       0.00000000 NULL
P        3.12657882       5.23441038       1.99017695       0.00000000 NULL
P        3.72469923      -1.53138164       7.00119739       0.00000000 NULL
P        2.84540528       3.09194193       1.43870262       0.00000000 NULL
P        1.51183596       1.43617963       2.32321849       0.00000000 NULL
P        2.38752827       4.78563681       5.30780348       0.00000000 NULL
P       -1.36507958      -0.45076485       5.10935445       0.00000000 NULL
P        3.11591393      -0.17799484       3.19846781       0.00000000 NULL
P        0.85096945       1.12518957       6.43574223       0.00000000 NULL
P        0.67792094       3.61923671       4.41183384       0.00000000 NULL
P        2.85066610       2.85661929       4.72400682       0.00000000 NULL
P       -0.60355777       1.72411753       4.95369107       0.00000000 NULL
P        3.98043798       2.24900368       6.47170821       0.00000000 NULL
P        5.23775100       5.77661854       1.81846844       0.00000000 NULL
16
Lattice="6.154767859076999 0.8280366590057252 0.10919293896982674 0.1858926373395884 7.491608515846482 -0.49354301620845775 -2.5878229190466855 -4.282624957976294 8.485455403928624" Properties=species:S:1:pos:R:3:initial_magmoms:R:1:castep_labels:S:1 n_minim_iter=9 pbc="T T T"
P        3.46209602       0.44580383       7.64600499       0.00000000 NULL
P       -0.09288214       1.01024365       8.08531999       0.00000000 NULL
P       -0.48054127      -1.07557972       7.65757116       0.00000000 NULL
P        3.22587925       5.24446336       1.80083967       0.00000000 NULL
P        3.67216223      -1.59066692       6.78931818       0.00000000 NULL
P        2.88190526       3.06445121       1.32250025       0.00000000 NULL
P        1.53963463       1.41283774       2.21197207       0.00000000 NULL
P        2.45478789       4.71948618       5.01407782       0.00000000 NULL
P       -1.38947586      -0.60027412       4.94889491       0.00000000 NULL
P        3.09993235      -0.16100712       3.09238431       0.00000000 NULL
P        0.88191452       0.98897377       6.19234092       0.00000000 NULL
P        0.73970555       3.52743821       4.17427740       0.00000000 NULL
P        2.87000201       2.78795172       4.47631118       0.00000000 NULL
P       -0.56100913       1.59384579       4.73072540       0.00000000 NULL
P        3.98067415       2.16683916       6.21636060       0.00000000 NULL
P        5.31394885       5.81755107       1.62663170       0.00000000 NULL
16
Lattice="6.222904337114746 0.8611996992305578 0.11372729666573346 0.21764056300929036 7.58349685264325 -0.5408136880709346 -2.625050679556929 -4.392414102883199 8.546289547278082" Properties=species:S:1:pos:R:3:initial_magmoms:R:1:castep_labels:S:1 n_minim_iter=10 pbc="T T T"
P        3.50390322       0.41695534       7.68667553       0.00000000 NULL
P       -0.08452687       0.97980595       8.11540552       0.00000000 NULL
P       -0.48249528      -1.13457310       7.69947212       0.00000000 NULL
P        3.28378366       5.30896246       1.78138413       0.00000000 NULL
P        3.71194975      -1.63351658       6.83483446       0.00000000 NULL
P        2.92417766       3.09668058       1.31563993       0.00000000 NULL
P        1.56517516       1.42396204       2.21630659       0.00000000 NULL
P        2.50253456       4.76070267       5.01122707       0.00000000 NULL
P       -1.40376590      -0.64286502       4.97374900       0.00000000 NULL
P        3.13691667      -0.16399718       3.11214190       0.00000000 NULL
P        0.90679216       0.96822058       6.21590492       0.00000000 NULL
P        0.76444356       3.54781276       4.17232682       0.00000000 NULL
P        2.91217978       2.80305873       4.47967493       0.00000000 NULL
P       -0.55426365       1.58309447       4.73937398       0.00000000 NULL
P        4.03438938       2.16967606       6.24083646       0.00000000 NULL
P        5.39303862       5.89712232       1.60650550       0.00000000 NULL
16
Lattice="6.217864318686623 0.8779147934346753 0.10709869428610405 0.23900848999581217 7.574926442191618 -0.5739573653797857 -2.641996788381658 -4.435286420573559 8.52333912307935" Properties=species:S:1:pos:R:3:initial_magmoms:R:1:castep_labels:S:1 n_minim_iter=11 pbc="T T T"
P        3.49219433       0.38660471       7.64586917       0.00000000 NULL
P       -0.09051823       0.94121308       8.06776294       0.00000000 NULL
P       -0.49152000      -1.17129185       7.66580837       0.00000000 NULL
P        3.29442294       5.30235912       1.74517514       0.00000000 NULL
P        3.69814422      -1.65243259       6.80525414       0.00000000 NULL
P        2.92670429       3.08866263       1.29410998       0.00000000 NULL
P        1.56707837       1.41696150       2.19786380       0.00000000 NULL
P        2.50715365       4.73930308       4.96105712       0.00000000 NULL
P       -1.40958702      -0.67097607       4.95207741       0.00000000 NULL
P        3.13191215      -0.16601155       3.09565666       0.00000000 NULL
P        0.90687272       0.93912127       6.17852260       0.00000000 NULL
P        0.76954420       3.52401765       4.13328653       0.00000000 NULL
P        2.91009451       2.78355937       4.43926490       0.00000000 NULL
P       -0.55202864       1.55505545       4.70632016       0.00000000 NULL
P        4.02854354       2.14600837       6.19870268       0.00000000 NULL
P        5.39967069       5.89550326       1.56816495       0.00000000 NULL
16
Lattice="6.224981791467126 0.8983277624520902 0.10204204439777828 0.2632951928202524 7.587087807297854 -0.6105588794403967 -2.6632553180270557 -4.49284463887684 8.514404872127354" Properties=species:S:1:pos:R:3:initial_magmoms:R:1:castep_labels:S:1 n_minim_iter=12 pbc="T T T"
P        3.48900113       0.35614968       7.61795693       0.00000000 NULL
P       -0.09428798       0.90344528       8.03227713       0.00000000 NULL
P       -0.49984427      -1.21328849       7.64433401       0.00000000 NULL
P        3.31362088       5.31029912       1.71070164       0.00000000 NULL
P        3.69264712      -1.67692066       6.78783811       0.00000000 NULL
P        2.93612596       3.08892332       1.27453825       0.00000000 NULL
P        1.57311821       1.41382727       2.18278885       0.00000000 NULL
P        2.51944656       4.73057250       4.91748386       0.00000000 NULL
P       -1.41701733      -0.70246150       4.93784892       0.00000000 NULL
P        3.13388665      -0.16818622       3.08486840       0.00000000 NULL
P        0.91113136       0.91143403       6.15055365       0.00000000 NULL
P        0.77820694       3.50875338       4.09955995       0.00000000 NULL
P        2.91548096       2.77081770       4.40530368       0.00000000 NULL
P       -0.54904017       1.52998022       4.67972552       0.00000000 NULL
P        4.03261768       2.12737506       6.16671547       0.00000000 NULL
P        5.41901854       5.91067701       1.53173746       0.00000000 NULL
16
Lattice="6.264741639940852 1.0143545445959374 0.07300854914417128 0.4014349666158268 7.668711517490159 -0.8149527325054412 -2.784248724621777 -4.821438875643736 8.469971054968314" Properties=species:S:1:pos:R:3:initial_magmoms:R:1:castep_labels:S:1 n_minim_iter=13 pbc="T T T"
P        3.46999668       0.18810621       7.46628211       0.00000000 NULL
P       -0.11563680       0.69446167       7.83895306       0.00000000 NULL
P       -0.54768820      -1.44901733       7.52888444       0.00000000 NULL
P        3.42215093       5.36443825       1.51911106       0.00000000 NULL
P        3.66021909      -1.81661680       6.69444906       0.00000000 NULL
P        2.98888079       3.09636198       1.16686500       0.00000000 NULL
P        1.60740583       1.40043912       2.09940842       0.00000000 NULL
P        2.58942834       4.69155089       4.67634279       0.00000000 NULL
P       -1.45889407      -0.87864374       4.86121152       0.00000000 NULL
P        3.14539733      -0.17940305       3.02533726       0.00000000 NULL
P        0.93470822       0.76074485       5.99772906       0.00000000 NULL
P        0.82678116       3.42949862       3.91411309       0.00000000 NULL
P        2.94568024       2.70546938       4.21915399       0.00000000 NULL
P       -0.53298737       1.39316263       4.53509276       0.00000000 NULL
P        4.05524209       2.02785231       5.99106646       0.00000000 NULL
P        5.52849664       6.00646226       1.32914687       0.00000000 NULL
16
Lattice="6.271669408750491 1.193459018360099 0.07883754797076231 0.6220928438072458 7.856032547152742 -1.1863654499306775 -2.878115937182226 -5.413100210316885 8.322823159644987" Properties=species:S:1:pos:R:3:initial_magmoms:R:1:castep_labels:S:1 n_minim_iter=14 pbc="T T T"
P        3.47276977      -0.11916073       7.18708367       0.00000000 NULL
P       -0.08098229       0.32605526       7.44509553       0.00000000 NULL
P       -0.54931649      -1.86404086       7.27336762       0.00000000 NULL
P        3.58990665       5.47130307       1.19085146       0.00000000 NULL
P        3.63576721      -2.10459524       6.52958668       0.00000000 NULL
P        3.05617718       3.10469084       0.99682836       0.00000000 NULL
P        1.67910704       1.39515762       1.94629215       0.00000000 NULL
P        2.72595298       4.65106962       4.22638485       0.00000000 NULL
P       -1.46736520      -1.18395360       4.67779959       0.00000000 NULL
P        3.17922808      -0.20148779       2.92770192       0.00000000 NULL
P        1.03937650       0.50864639       5.69286197       0.00000000 NULL
P        0.93203621       3.29519378       3.56344811       0.00000000 NULL
P        3.00216660       2.58724487       3.88317454       0.00000000 NULL
P       -0.46145270       1.15457952       4.24779747       0.00000000 NULL
P        4.11216574       1.84568083       5.67675693       0.00000000 NULL
P        5.66533648       6.17934992       1.00440424       0.00000000 NULL
16
Lattice="6.51206149545398 1.2232814204607714 0.122992095393248 0.6262367855133996 8.047502420776388 -1.1821848538075077 -2.9205293124815963 -5.500275756898228 8.529074343609997" Properties=species:S:1:pos:R:3:initial_magmoms:R:1:castep_labels:S:1 n_minim_iter=15 pbc="T T T"
P        3.65276063      -0.07446518       7.42853759       0.00000000 NULL
P       -0.05423464       0.36551600       7.67612675       0.00000000 NULL
P       -0.51388587      -1.85804705       7.47540358       0.00000000 NULL
P        3.73558327       5.61219663       1.27582496       0.00000000 NULL
P        3.82570600      -2.14601998       6.74388736       0.00000000 NULL
P        3.17625089       3.17025079       1.06427054       0.00000000 NULL
P        1.76744771       1.46790321       2.01190041       0.00000000 NULL
P        2.84796385       4.81445540       4.37959866       0.00000000 NULL
P       -1.49269563      -1.19469100       4.79530206       0.00000000 NULL
P        3.34688960      -0.16700176       3.03168586       0.00000000 NULL
P        1.15505618       0.57016367       5.86389629       0.00000000 NULL
P        0.97115797       3.38073268       3.69288665       0.00000000 NULL
P        3.13492223       2.66803931       4.01474949       0.00000000 NULL
P       -0.44592650       1.19787491       4.37717085       0.00000000 NULL
P        4.30513390       1.93907055       5.88523552       0.00000000 NULL
P        5.87402250       6.33388405       1.09911725       0.00000000 NULL
16
Lattice="6.323272381963846 1.1901634175533649 0.09796220567591322 0.6109841095545258 7.789909707439379 -1.1580637488979382 -2.8679774202632227 -5.346079093083906 8.311621678592122" Properties=species:S:1:pos:R:3:initial_magmoms:R:1:castep_labels:S:1 n_minim_iter=16 pbc="T T T"
P        3.51894199      -0.08751125       7.21660377       0.00000000 NULL
P       -0.08388134       0.33300940       7.46851838       0.00000000 NULL
P       -0.52767677      -1.81497047       7.27636234       0.00000000 NULL
P        3.62342577       5.43233582       1.22450785       0.00000000 NULL
P        3.68918749      -2.09049431       6.55112991       0.00000000 NULL
P        3.07861741       3.06645785       1.02253309       0.00000000 NULL
P        1.71107546       1.42178222       1.95014738       0.00000000 NULL
P        2.74675154       4.65057491       4.24804878       0.00000000 NULL
P       -1.46879659      -1.16841358       4.67066528       0.00000000 NULL
P        3.24138525      -0.16399231       2.93934713       0.00000000 NULL
P        1.09883003       0.53825394       5.70126023       0.00000000 NULL
P        0.92844581       3.26006616       3.58819158       0.00000000 NULL
P        3.02689870       2.57562064       3.89257290       0.00000000 NULL
P       -0.44997735       1.14438198       4.26151914       0.00000000 NULL
P        4.15872601       1.86720302       5.71015146       0.00000000 NULL
P        5.69583176       6.13011326       1.04599814       0.00000000 NULL
16
Lattice="6.327518846989026 1.1995470399823478 0.10161839011639036 0.6220156462866667 7.812440167293869 -1.1596567707976229 -2.869526417848265 -5.361539145199083 8.304194647375411" Properties=species:S:1:pos:R:3:initial_magmoms:R:1:castep_labels:S:1 n_minim_iter=17 pbc="T T T"
P        3.52598103      -0.08212570       7.21330768       0.00000000 NULL
P       -0.07750136       0.33668647       7.46140307       0.00000000 NULL
P       -0.52436710      -1.81834550       7.27017798       0.00000000 NULL
P        3.63463266       5.45124967       1.22399788       0.00000000 NULL
P        3.69311714      -2.09375703       6.54927545       0.00000000 NULL
P        3.08565997       3.07678523       1.02275479       0.00000000 NULL
P        1.71646845       1.43074956       1.94804734       0.00000000 NULL
P        2.75802994       4.67006645       4.24311918       0.00000000 NULL
P       -1.46732325      -1.17248274       4.66511604       0.00000000 NULL
P        3.24778716      -0.15812218       2.93884354       0.00000000 NULL
P        1.10765457       0.54341875       5.69658358       0.00000000 NULL
P        0.93536985       3.26933078       3.58450225       0.00000000 NULL
P        3.03483218       2.58657716       3.88865008       0.00000000 NULL
P       -0.44386213       1.14694433       4.25720828       0.00000000 NULL
P        4.16812427       1.87972127       5.70756209       0.00000000 NULL
P        5.70740543       6.15262840       1.04677526       0.00000000 NULL
16
Lattice="6.326181589833998 1.2067191153207593 0.10479269195787064 0.6310716971080328 7.817368451337202 -1.1636016775585583 -2.8684646006954995 -5.370931365303373 8.292080331946998" Properties=species:S:1:pos:R:3:initial_magmoms:R:1:castep_labels:S:1 n_minim_iter=18 pbc="T T T"
P        3.52917662      -0.08183767       7.20422185       0.00000000 NULL
P       -0.07224693       0.33363984       7.44800963       0.00000000 NULL
P       -0.52102981      -1.82274565       7.25865526       0.00000000 NULL
P        3.64167911       5.45671268       1.22028796       0.00000000 NULL
P        3.69356690      -2.09699149       6.54307032       0.00000000 NULL
P        3.08942631       3.07912741       1.02092235       0.00000000 NULL
P        1.72013876       1.43564656       1.94356061       0.00000000 NULL
P        2.76545490       4.67574630       4.23256532       0.00000000 NULL
P       -1.46500165      -1.17753647       4.65604606       0.00000000 NULL
P        3.25163106      -0.15345331       2.93602260       0.00000000 NULL
P        1.11521349       0.54319990       5.68696294       0.00000000 NULL
P        0.94017278       3.26772476       3.57653692       0.00000000 NULL
P        3.03918146       2.58893533       3.88013795       0.00000000 NULL
P       -0.43790462       1.14319875       4.24891485       0.00000000 NULL
P        4.17300965       1.88412492       5.69955805       0.00000000 NULL
P        5.71259980       6.16019257       1.04421764       0.00000000 NULL
16
Lattice="6.330544464441726 1.2254640117774673 0.11323060159950406 0.6536698601593122 7.82669127401405 -1.1795731507735696 -2.8684019946543367 -5.400424212178667 8.272405963389858" Properties=species:S:1:pos:R:3:initial_magmoms:R:1:castep_labels:S:1 n_minim_iter=19 pbc="T T T"
P        3.54157527      -0.08757964       7.18911435       0.00000000 NULL
P       -0.05949697       0.31820983       7.42127955       0.00000000 NULL
P       -0.51288659      -1.83980619       7.23753346       0.00000000 NULL
P        3.66345015       5.46687954       1.20953503       0.00000000 NULL
P        3.69950891      -2.11070155       6.53612323       0.00000000 NULL
P        3.10270670       3.08251883       1.01600008       0.00000000 NULL
P        1.73166685       1.44686951       1.93298575       0.00000000 NULL
P        2.78697190       4.68472532       4.20704546       0.00000000 NULL
P       -1.46091340      -1.19486994       4.63785692       0.00000000 NULL
P        3.26657424      -0.14296739       2.93238189       0.00000000 NULL
P        1.13683190       0.53737100       5.66800553       0.00000000 NULL
P        0.95221757       3.25744811       3.55807597       0.00000000 NULL
P        3.05367977       2.59049024       3.86068935       0.00000000 NULL
P       -0.42301821       1.12835943       4.23123910       0.00000000 NULL
P        4.19037144       1.89023192       5.68457297       0.00000000 NULL
P        5.73180790       6.17571991       1.03596519       0.00000000 NULL
