9
Lattice="4.73693 -3.0524366478597004e-16 8.324277297680517e-16 0.6937790241031419 6.704519697048737 -2.2067416342861554e-16 1.8442165087825975 1.5977492232724024 6.311023205817432" Properties=species:S:1:pos:R:3:initial_magmoms:R:1:castep_labels:S:1 n_minim_iter=1 pbc="T T T"
P        2.94546186       3.67067130       5.12357705       0.00000000 NULL
P        4.15518247       2.13001372       0.61795520       0.00000000 NULL
P        1.10937541       0.79837083       1.97289780       0.00000000 NULL
P        1.48726189       5.81667309       0.86922985       0.00000000 NULL
P        2.68067580       5.72530425       2.48521404       0.00000000 NULL
P        1.67574486       4.68946761       3.91034911       0.00000000 NULL
P        1.47474242       2.38509965       0.77196310       0.00000000 NULL
P        2.72140071       2.57100612       2.89471299       0.00000000 NULL
P        2.51262522       7.87994562       5.34830691       0.00000000 NULL
9
Lattice="4.739986730056677 -0.0005705302408036246 0.003061297867085763 0.693419205393228 6.710551268261153 -0.0019921675411947075 1.8492927141863975 1.5966871000897502 6.324073528600055" Properties=species:S:1:pos:R:3:initial_magmoms:R:1:castep_labels:S:1 n_minim_iter=2 pbc="T T T"
P        2.95031943       3.67156101       5.13409483       0.00000000 NULL
P        4.15786402       2.13123484       0.62110835       0.00000000 NULL
P        1.11110481       0.79840718       1.97746408       0.00000000 NULL
P        1.48793963       5.82125921       0.86955968       0.00000000 NULL
P        2.68381822       5.72920152       2.48985034       0.00000000 NULL
P        1.67848583       4.69207300       3.91741097       0.00000000 NULL
P        1.47615043       2.38718517       0.77372452       0.00000000 NULL
P        2.72470691       2.57193037       2.90121132       0.00000000 NULL
P        2.51669009       7.88499613       5.35751346       0.00000000 NULL
9
Lattice="4.826523879161245 -0.0178109785180393 0.09288733235329394 0.6816919334668461 6.879175848570359 -0.06115204512980897 1.996844295967599 1.562689826712453 6.701956342318856" Properties=species:S:1:pos:R:3:initial_magmoms:R:1:castep_labels:S:1 n_minim_iter=3 pbc="T T T"
P        3.09033759       3.69229791       5.43841459       0.00000000 NULL
P        4.23365318       2.16392974       0.71285305       0.00000000 NULL
P        1.16119103       0.79807880       2.10988335       0.00000000 NULL
P        1.50618679       5.94857046       0.87773361       0.00000000 NULL
P        2.77351827       5.83588486       2.62365373       0.00000000 NULL
P        1.75742938       4.76209265       4.12094856       0.00000000 NULL
P        1.51618572       2.44506417       0.82470828       0.00000000 NULL
P        2.81957116       2.59532698       3.08934003       0.00000000 NULL
P        2.63349672       8.02270906       5.62266724       0.00000000 NULL
9
Lattice="4.83000341747193 -0.033439043631730836 0.13411944566314685 0.6600820216277435 6.841109288982938 -0.09849248473165292 2.047861329578445 1.5072458698578055 6.787819122055781" Properties=species:S:1:pos:R:3:initial_magmoms:R:1:castep_labels:S:1 n_minim_iter=4 pbc="T T T"
P        3.12447567       3.62363571       5.50331672       0.00000000 NULL
P        4.23352768       2.13482582       0.74308730       0.00000000 NULL
P        1.17323901       0.78030958       2.14417713       0.00000000 NULL
P        1.49334869       5.90405465       0.85914750       0.00000000 NULL
P        2.78812589       5.77877433       2.64168603       0.00000000 NULL
P        1.77192380       4.70280469       4.15424252       0.00000000 NULL
P        1.52031633       2.42951751       0.83478149       0.00000000 NULL
P        2.83636401       2.55432514       3.13156551       0.00000000 NULL
P        2.65668404       7.94163208       5.66287211       0.00000000 NULL
9
Lattice="4.813090139391721 -0.051199199479465766 0.17546417809392018 0.6324676401053939 6.751480453846395 -0.14086227841558993 2.0903697778655963 1.4340087785930096 6.824520699015819" Properties=species:S:1:pos:R:3:initial_magmoms:R:1:castep_labels:S:1 n_minim_iter=5 pbc="T T T"
P        3.14339139       3.51978295       5.52694787       0.00000000 NULL
P        4.21448521       2.08706476       0.76650304       0.00000000 NULL
P        1.17988098       0.75531424       2.16460395       0.00000000 NULL
P        1.47145527       5.81287495       0.82833904       0.00000000 NULL
P        2.79053731       5.67473201       2.63527373       0.00000000 NULL
P        1.77630034       4.60205569       4.15415808       0.00000000 NULL
P        1.51775590       2.39589578       0.83741878       0.00000000 NULL
P        2.83919808       2.49097732       3.14896650       0.00000000 NULL
P        2.66656897       7.79706472       5.65848653       0.00000000 NULL
9
Lattice="4.741008593555938 -0.08371361655477647 0.2875871507322334 0.5758904446971282 6.502159726305185 -0.2444898006167171 2.200721170178647 1.2500660308746074 6.898606363682135" Properties=species:S:1:pos:R:3:initial_magmoms:R:1:castep_labels:S:1 n_minim_iter=6 pbc="T T T"
P        3.18929141       3.25054393       5.57677883       0.00000000 NULL
P        4.14549562       1.96938287       0.82794182       0.00000000 NULL
P        1.19590236       0.69517033       2.21711893       0.00000000 NULL
P        1.42336739       5.56163470       0.74849142       0.00000000 NULL
P        2.80155319       5.39876641       2.61351229       0.00000000 NULL
P        1.79380658       4.33246981       4.14431075       0.00000000 NULL
P        1.51199732       2.30845472       0.84455710       0.00000000 NULL
P        2.83873179       2.33088897       3.18536745       0.00000000 NULL
P        2.70661250       7.41530564       5.63990537       0.00000000 NULL
9
Lattice="4.682540749965949 -0.05266324866867924 0.40070711427074424 0.611274974260721 6.4346316494388205 -0.31277115392294935 2.3391412130594853 1.1651092626003967 7.053631270975037" Properties=species:S:1:pos:R:3:initial_magmoms:R:1:castep_labels:S:1 n_minim_iter=7 pbc="T T T"
P        3.29519010       3.14242954       5.71137783       0.00000000 NULL
P        4.11119909       1.96507660       0.89959043       0.00000000 NULL
P        1.23252426       0.68457152       2.30717770       0.00000000 NULL
P        1.45844354       5.47747103       0.70640837       0.00000000 NULL
P        2.89294863       5.32124848       2.64469894       0.00000000 NULL
P        1.87961465       4.22370098       4.20362758       0.00000000 NULL
P        1.54585002       2.30634530       0.87172949       0.00000000 NULL
P        2.88007063       2.28906781       3.26534199       0.00000000 NULL
P        2.86143124       7.30171734       5.73130346       0.00000000 NULL
9
Lattice="4.621640667537224 -0.047905130438512016 0.429371921215831 0.6090899509734523 6.288555707328931 -0.3475113320225647 2.355226231019625 1.0953312742542356 6.955041891939349" Properties=species:S:1:pos:R:3:initial_magmoms:R:1:castep_labels:S:1 n_minim_iter=8 pbc="T T T"
P        3.29096585       3.02671063       5.63069343       0.00000000 NULL
P        4.05780266       1.91864886       0.89378980       0.00000000 NULL
P        1.23155307       0.66116255       2.28698106       0.00000000 NULL
P        1.45029293       5.34301406       0.66259133       0.00000000 NULL
P        2.88746352       5.18318870       2.58275017       0.00000000 NULL
P        1.88032540       4.09320220       4.12146993       0.00000000 NULL
P        1.53996057       2.25637541       0.85718453       0.00000000 NULL
P        2.85958348       2.22052374       3.21520936       0.00000000 NULL
P        2.87341645       7.10950563       5.62710105       0.00000000 NULL
9
Lattice="4.632813034225774 -0.04104677890433029 0.46006394767196707 0.6204333963290533 6.325944758577899 -0.3719528469298162 2.4027802966537193 1.0794338067180531 7.03280511202571" Properties=species:S:1:pos:R:3:initial_magmoms:R:1:castep_labels:S:1 n_minim_iter=9 pbc="T T T"
P        3.33694431       3.02390545       5.69437666       0.00000000 NULL
P        4.06954163       1.93363980       0.91332862       0.00000000 NULL
P        1.24834258       0.66240695       2.32153989       0.00000000 NULL
P        1.46729289       5.36835831       0.65268844       0.00000000 NULL
P        2.92410111       5.20651399       2.60146298       0.00000000 NULL
P        1.91156984       4.10082180       4.15623112       0.00000000 NULL
P        1.55683780       2.27311081       0.86737455       0.00000000 NULL
P        2.88568618       2.22598339       3.25137919       0.00000000 NULL
P        2.92712282       7.13765089       5.67641812       0.00000000 NULL
9
Lattice="4.620664024745818 -0.036436515884692246 0.48057377099988724 0.6251792699820167 6.303602020780218 -0.3889467884934475 2.426930666467111 1.0569191658771353 7.037830232785219" Properties=species:S:1:pos:R:3:initial_magmoms:R:1:castep_labels:S:1 n_minim_iter=10 pbc="T T T"
P        3.35543092       2.99485937       5.69942118       0.00000000 NULL
P        4.05958958       1.92843609       0.92017053       0.00000000 NULL
P        1.25540927       0.65751901       2.33026083       0.00000000 NULL
P        1.47288461       5.34464631       0.63886740       0.00000000 NULL
P        2.93768547       5.18148601       2.59433380       0.00000000 NULL
P        1.92500551       4.07210480       4.14935358       0.00000000 NULL
P        1.56212507       2.26693073       0.86863581       0.00000000 NULL
P        2.89111375       2.21129314       3.25310657       0.00000000 NULL
P        2.95354682       7.10130425       5.67102794       0.00000000 NULL
9
Lattice="4.577261047426004 -0.0168205258044922 0.5779223925870204 0.6465863240490379 6.2337331929177955 -0.46411409820097527 2.5463469034605994 0.9630444712503324 7.096091633306362" Properties=species:S:1:pos:R:3:initial_magmoms:R:1:castep_labels:S:1 n_minim_iter=11 pbc="T T T"
P        3.45129942       2.88033862       5.75301820       0.00000000 NULL
P        4.02245400       1.91411985       0.95659881       0.00000000 NULL
P        1.29266440       0.63945715       2.38321346       0.00000000 NULL
P        1.50118521       5.26383850       0.58272619       0.00000000 NULL
P        3.00668067       5.09486878       2.57888497       0.00000000 NULL
P        1.99091248       3.96532824       4.14083476       0.00000000 NULL
P        1.59048056       2.24985973       0.88117854       0.00000000 NULL
P        2.92396295       2.15565875       3.27790112       0.00000000 NULL
P        3.08371412       6.97408312       5.68022307       0.00000000 NULL
9
Lattice="4.565597836834184 -0.024597789889506685 0.641270519098122 0.6338703854327958 6.209522363928418 -0.5074012649709153 2.6235817144640903 0.90503823060815 7.1883394833280825" Properties=species:S:1:pos:R:3:initial_magmoms:R:1:castep_labels:S:1 n_minim_iter=12 pbc="T T T"
P        3.51957882       2.79664002       5.83819420       0.00000000 NULL
P        3.97800311       1.89406148       0.96386802       0.00000000 NULL
P        1.31834201       0.63877637       2.45910633       0.00000000 NULL
P        1.50542455       5.21740465       0.54773673       0.00000000 NULL
P        3.05093612       5.04638777       2.58465480       0.00000000 NULL
P        1.99809493       3.91294534       4.16431590       0.00000000 NULL
P        1.61420699       2.24633430       0.90783437       0.00000000 NULL
P        2.93435989       2.10985672       3.30305872       0.00000000 NULL
P        3.15560808       6.93019988       5.76841619       0.00000000 NULL
9
Lattice="4.496971207036505 -0.00765160014227455 0.5962744582628956 0.6478043778501869 6.0298713829885955 -0.48352828592833047 2.54263101723816 0.896907134210644 7.003591940027068" Properties=species:S:1:pos:R:3:initial_magmoms:R:1:castep_labels:S:1 n_minim_iter=13 pbc="T T T"
P        3.44847678       2.72629497       5.68888176       0.00000000 NULL
P        3.90914147       1.85015567       0.90870636       0.00000000 NULL
P        1.28379112       0.63132688       2.40360566       0.00000000 NULL
P        1.50350681       5.06879805       0.53649037       0.00000000 NULL
P        3.01443446       4.91168547       2.51062318       0.00000000 NULL
P        1.94330376       3.81272570       4.05463478       0.00000000 NULL
P        1.59645095       2.18900222       0.88623766       0.00000000 NULL
P        2.87231657       2.05870756       3.20045019       0.00000000 NULL
P        3.10200974       6.75830217       5.64899130       0.00000000 NULL
9
Lattice="4.558952292248009 -0.009299393908268219 0.6117108843288575 0.6545499939032235 6.146643560040274 -0.49641466336909346 2.586772142922247 0.909892794845197 7.1469916747556725" Properties=species:S:1:pos:R:3:initial_magmoms:R:1:castep_labels:S:1 n_minim_iter=14 pbc="T T T"
P        3.50546158       2.77425737       5.80444608       0.00000000 NULL
P        3.95896475       1.88429533       0.92619572       0.00000000 NULL
P        1.30276383       0.64316680       2.45691264       0.00000000 NULL
P        1.52516097       5.16317849       0.54564244       0.00000000 NULL
P        3.06163297       5.00354751       2.56058886       0.00000000 NULL
P        1.97086900       3.88519914       4.13519043       0.00000000 NULL
P        1.62052461       2.23272185       0.90444100       0.00000000 NULL
P        2.91517411       2.09449002       3.26455571       0.00000000 NULL
P        3.15033344       6.88719656       5.76380184       0.00000000 NULL
9
Lattice="4.556868626514594 -0.007878400245093418 0.613139938728611 0.6562560517138796 6.1382927418936974 -0.4941300245805462 2.5883441434070447 0.9103598848624802 7.1433861141346515" Properties=species:S:1:pos:R:3:initial_magmoms:R:1:castep_labels:S:1 n_minim_iter=15 pbc="T T T"
P        3.50848914       2.77080548       5.80342651       0.00000000 NULL
P        3.95531153       1.88229062       0.92501734       0.00000000 NULL
P        1.30234660       0.64378659       2.45798738       0.00000000 NULL
P        1.52819190       5.15563350       0.54750873       0.00000000 NULL
P        3.06480334       4.99724105       2.56075171       0.00000000 NULL
P        1.97026488       3.88160126       4.13238517       0.00000000 NULL
P        1.62158865       2.23088380       0.90583881       0.00000000 NULL
P        2.91465588       2.09208018       3.26201025       0.00000000 NULL
P        3.15403840       6.88185452       5.76644905       0.00000000 NULL
9
Lattice="4.557550111182354 -0.005205779055324315 0.616211281529132 0.6601386172525922 6.130825134839247 -0.4913068852801756 2.593602886810878 0.9117615393116871 7.146238978569392" Properties=species:S:1:pos:R:3:initial_magmoms:R:1:castep_labels:S:1 n_minim_iter=16 pbc="T T T"
P        3.51749690       2.76768234       5.80876378       0.00000000 NULL
P        3.95249271       1.88103655       0.92365663       0.00000000 NULL
P        1.30271553       0.64546157       2.46320340       0.00000000 NULL
P        1.53539151       5.14823908       0.55115493       0.00000000 NULL
P        3.07374079       4.99184720       2.56382852       0.00000000 NULL
P        1.97102772       3.87963962       4.13237177       0.00000000 NULL
P        1.62511063       2.23038220       0.90914139       0.00000000 NULL
P        2.91659869       2.09005699       3.26142679       0.00000000 NULL
P        3.16378369       6.88023108       5.77806516       0.00000000 NULL
9
Lattice="4.574221053496134 0.032992092797276155 0.6407784099310068 0.7166444837759414 6.052962769180405 -0.46367970041087303 2.6457081880417843 0.9293632114294947 7.179157799743853" Properties=species:S:1:pos:R:3:initial_magmoms:R:1:castep_labels:S:1 n_minim_iter=17 pbc="T T T"
P        3.62295325       2.73910249       5.86588742       0.00000000 NULL
P        3.92752959       1.87347875       0.89625723       0.00000000 NULL
P        1.30359274       0.66499954       2.52300655       0.00000000 NULL
P        1.63162572       5.07124752       0.59068414       0.00000000 NULL
P        3.18694399       4.93902060       2.59200326       0.00000000 NULL
P        1.97943695       3.86268794       4.12708754       0.00000000 NULL
P        1.66982534       2.22963902       0.94166051       0.00000000 NULL
P        2.94056939       2.07172311       3.24861149       0.00000000 NULL
P        3.28100239       6.87212631       5.90894386       0.00000000 NULL
