10
Lattice="6.051290000000002 -7.200663164052454e-17 -1.086474156384509e-15 2.1516086165171284 5.803926788772344 1.291088036645528e-15 1.8109032804319443 1.1966589576092748 6.020694698138604" Properties=species:S:1:pos:R:3:initial_magmoms:R:1:castep_labels:S:1 n_minim_iter=1 pbc="T T T"
P        3.36649235       5.11303405       0.39991260       0.00000000 NULL
P        3.39725521       3.22611800       1.16722967       0.00000000 NULL
P        7.76577628       5.96469135       1.20471392       0.00000000 NULL
P        6.00585119       2.85405421       2.94419316       0.00000000 NULL
P        8.05366508       4.81238122       5.32761159       0.00000000 NULL
P        5.46249084       2.16931863       4.78685146       0.00000000 NULL
P        3.44155107       3.64691240       4.08698122       0.00000000 NULL
P        6.37945720       5.87367234       3.58166251       0.00000000 NULL
P        2.66190313       5.25492918       3.07944927       0.00000000 NULL
P        4.18302899       3.24790501       5.91162981       0.00000000 NULL
10
Lattice="6.054484362878844 -0.002363933376643919 0.00045899555597253176 2.1504771094240653 5.80802191298001 -0.001758639605220698 1.8118484230835354 1.1949755469776977 6.02572412939174" Properties=species:S:1:pos:R:3:initial_magmoms:R:1:castep_labels:S:1 n_minim_iter=2 pbc="T T T"
P        3.36644963       5.11599776       0.39869012       0.00000000 NULL
P        3.39799482       3.22711945       1.16760805       0.00000000 NULL
P        7.76746428       5.96637871       1.20439934       0.00000000 NULL
P        6.00812722       2.85328252       2.94623224       0.00000000 NULL
P        8.05636148       4.81161290       5.33121865       0.00000000 NULL
P        5.46505878       2.16712414       4.79064947       0.00000000 NULL
P        3.44215348       3.64716845       4.08947835       0.00000000 NULL
P        6.38094466       5.87496680       3.58343390       0.00000000 NULL
P        2.66139946       5.25763381       3.08061980       0.00000000 NULL
P        4.18428378       3.24701603       5.91632894       0.00000000 NULL
10
Lattice="6.154103066509609 -0.07757157063489613 0.016164970081901965 2.1137644151877573 5.937548125455413 -0.05843671581333661 1.8424142730013184 1.140100358748335 6.183838763832557" Properties=species:S:1:pos:R:3:initial_magmoms:R:1:castep_labels:S:1 n_minim_iter=3 pbc="T T T"
P        3.36403486       5.20952708       0.35922232       0.00000000 NULL
P        3.42068665       3.25829382       1.17939178       0.00000000 NULL
P        7.81876863       6.01909499       1.19427460       0.00000000 NULL
P        6.07898356       2.82790488       3.01066925       0.00000000 NULL
P        8.14040168       4.78560409       5.44454897       0.00000000 NULL
P        5.54600424       2.09581069       4.91045011       0.00000000 NULL
P        3.46087150       3.65409807       4.16746432       0.00000000 NULL
P        6.42699403       5.91458595       3.63876416       0.00000000 NULL
P        2.64486436       5.34265298       3.11623722       0.00000000 NULL
P        4.22386921       3.21706227       6.06412751       0.00000000 NULL
10
Lattice="6.139431517494866 -0.09368312368835256 0.041753177515737865 2.093094821488985 5.96468494035152 -0.08239906206145922 1.8602964095886458 1.107759762560071 6.193365804803764" Properties=species:S:1:pos:R:3:initial_magmoms:R:1:castep_labels:S:1 n_minim_iter=4 pbc="T T T"
P        3.34657859       5.22748431       0.34285568       0.00000000 NULL
P        3.41189979       3.26269716       1.18083532       0.00000000 NULL
P        7.78629364       6.02481140       1.19660957       0.00000000 NULL
P        6.06793749       2.81455700       3.02494018       0.00000000 NULL
P        8.12917027       4.76194153       5.45281712       0.00000000 NULL
P        5.55143507       2.05744326       4.92338979       0.00000000 NULL
P        3.45581115       3.64051609       4.16478527       0.00000000 NULL
P        6.41862211       5.90983536       3.64111541       0.00000000 NULL
P        2.63362281       5.35571734       3.10301998       0.00000000 NULL
P        4.22626938       3.18827752       6.07594628       0.00000000 NULL
10
Lattice="6.099376893684355 -0.11141791876184615 0.08491764698237884 2.0618430841003486 5.981917890405185 -0.1164209325196551 1.8877488274077898 1.0560923183564428 6.175885851223009" Properties=species:S:1:pos:R:3:initial_magmoms:R:1:castep_labels:S:1 n_minim_iter=5 pbc="T T T"
P        3.31706124       5.23412466       0.31898738       0.00000000 NULL
P        3.39358490       3.26039127       1.17977860       0.00000000 NULL
P        7.72098455       6.01494325       1.20057090       0.00000000 NULL
P        6.03791142       2.78930116       3.03537397       0.00000000 NULL
P        8.09737779       4.71411136       5.44056331       0.00000000 NULL
P        5.55034697       1.99367804       4.91984703       0.00000000 NULL
P        3.44403325       3.60848113       4.14084120       0.00000000 NULL
P        6.39846947       5.88343280       3.63149235       0.00000000 NULL
P        2.61606845       5.35622522       3.06885150       0.00000000 NULL
P        4.22428088       3.13458174       6.06402674       0.00000000 NULL
10
Lattice="6.0273784619251805 -0.1691015543535758 0.2000152044871956 1.9809175221072235 5.979036005890421 -0.2139844526147057 1.9693111750627517 0.8988044251777579 6.102687588042864" Properties=species:S:1:pos:R:3:initial_magmoms:R:1:castep_labels:S:1 n_minim_iter=6 pbc="T T T"
P        3.25422440       5.20086701       0.24758332       0.00000000 NULL
P        3.36083537       3.22705451       1.16893656       0.00000000 NULL
P        7.57693774       5.92882455       1.19964332       0.00000000 NULL
P        5.98411098       2.68941678       3.04583467       0.00000000 NULL
P        8.04860507       4.53156862       5.37874355       0.00000000 NULL
P        5.57905841       1.78310306       4.88944530       0.00000000 NULL
P        3.42556903       3.48662236       4.05375437       0.00000000 NULL
P        6.37503863       5.75116753       3.58797668       0.00000000 NULL
P        2.57529727       5.31055199       2.95830119       0.00000000 NULL
P        4.23306222       2.94944235       6.00192676       0.00000000 NULL
10
Lattice="6.174661453789248 -0.2623467684796688 0.26316124117224765 1.9438521952380572 5.941334118426012 -0.33111439316716823 2.0577742202412925 0.7251668996928953 6.137243313722022" Properties=species:S:1:pos:R:3:initial_magmoms:R:1:castep_labels:S:1 n_minim_iter=7 pbc="T T T"
P        3.28482020       5.12212974       0.15762243       0.00000000 NULL
P        3.42084314       3.16296767       1.14610731       0.00000000 NULL
P        7.66532929       5.78034665       1.15169432       0.00000000 NULL
P        6.10112599       2.54258720       3.05754821       0.00000000 NULL
P        8.21487385       4.28680423       5.37100111       0.00000000 NULL
P        5.75475886       1.53780973       4.92217815       0.00000000 NULL
P        3.48819030       3.33114700       4.02147451       0.00000000 NULL
P        6.50486427       5.55697963       3.55887742       0.00000000 NULL
P        2.58170822       5.21560457       2.88463872       0.00000000 NULL
P        4.31998692       2.72631623       6.01604837       0.00000000 NULL
10
Lattice="6.111242965330242 -0.23069445657009804 0.2976090688907951 1.9516614284434823 5.864753835958137 -0.3519781389024928 2.0793286536749256 0.6821805437180708 6.035434715412192" Properties=species:S:1:pos:R:3:initial_magmoms:R:1:castep_labels:S:1 n_minim_iter=8 pbc="T T T"
P        3.27972450       5.05944830       0.14131777       0.00000000 NULL
P        3.41055402       3.12961231       1.12654114       0.00000000 NULL
P        7.62135950       5.72267216       1.14213505       0.00000000 NULL
P        6.06678803       2.51482757       3.02482141       0.00000000 NULL
P        8.18509271       4.22728702       5.29323318       0.00000000 NULL
P        5.73742864       1.50361847       4.85604437       0.00000000 NULL
P        3.49409288       3.27057354       3.94972424       0.00000000 NULL
P        6.49493224       5.48002373       3.50200153       0.00000000 NULL
P        2.59749101       5.13460481       2.81550367       0.00000000 NULL
P        4.32300646       2.66186990       5.91584806       0.00000000 NULL
10
Lattice="6.143692426533737 -0.24384547630644118 0.3064851579315289 1.9505857874775643 5.856923732668627 -0.3821677814057794 2.09527001037742 0.6430036150165731 6.0449279237611" Properties=species:S:1:pos:R:3:initial_magmoms:R:1:castep_labels:S:1 n_minim_iter=9 pbc="T T T"
P        3.29077942       5.04594623       0.11716695       0.00000000 NULL
P        3.42608581       3.11684351       1.11712017       0.00000000 NULL
P        7.64843148       5.69698204       1.12266742       0.00000000 NULL
P        6.09359597       2.48554640       3.02278887       0.00000000 NULL
P        8.22356141       4.17917677       5.28816591       0.00000000 NULL
P        5.77374618       1.45780649       4.86185900       0.00000000 NULL
P        3.51144493       3.23652459       3.94227157       0.00000000 NULL
P        6.52550361       5.44069020       3.48825737       0.00000000 NULL
P        2.60391734       5.11076690       2.79597739       0.00000000 NULL
P        4.34139726       2.61445128       5.91704382       0.00000000 NULL
10
Lattice="6.1597555095202825 -0.24944826437397524 0.3183806002230376 1.950923450356834 5.837040456790577 -0.4097941105628791 2.110804365776364 0.6045924530744219 6.036334947167386" Properties=species:S:1:pos:R:3:initial_magmoms:R:1:castep_labels:S:1 n_minim_iter=10 pbc="T T T"
P        3.29871851       5.02409322       0.09497184       0.00000000 NULL
P        3.43672984       3.10050901       1.10606077       0.00000000 NULL
P        7.66313404       5.66583462       1.10481830       0.00000000 NULL
P        6.10930685       2.45651875       3.01538371       0.00000000 NULL
P        8.24919639       4.13004687       5.27128883       0.00000000 NULL
P        5.79962276       1.41575891       4.85557426       0.00000000 NULL
P        3.52623739       3.19858215       3.92493848       0.00000000 NULL
P        6.54789458       5.39534803       3.46747886       0.00000000 NULL
P        2.61124534       5.07718845       2.76913201       0.00000000 NULL
P        4.35583695       2.56559608       5.90181346       0.00000000 NULL
10
Lattice="6.176418492239252 -0.2554508435868985 0.32965567886780767 1.9510909661922025 5.817256742576318 -0.43728688847583663 2.1258219597276278 0.5664788416064197 6.029092685182624" Properties=species:S:1:pos:R:3:initial_magmoms:R:1:castep_labels:S:1 n_minim_iter=11 pbc="T T T"
P        3.30654089       5.00244168       0.07285002       0.00000000 NULL
P        3.44731401       3.08410871       1.09506733       0.00000000 NULL
P        7.67812929       5.63460461       1.08681535       0.00000000 NULL
P        6.12512029       2.42704157       3.00821509       0.00000000 NULL
P        8.27481857       4.08092411       5.25532694       0.00000000 NULL
P        5.82538940       1.37420491       4.85006203       0.00000000 NULL
P        3.54100507       3.16066664       3.90864537       0.00000000 NULL
P        6.56998894       5.34995615       3.44707629       0.00000000 NULL
P        2.61818491       5.04358956       2.74302206       0.00000000 NULL
P        4.36980205       2.51706737       5.88779211       0.00000000 NULL
10
Lattice="6.18578701587116 -0.2589364823285266 0.3358438534239155 1.9510789033265867 5.806016818638996 -0.4526672520207453 2.1340931678660167 0.5451365537376547 6.025303444181428" Properties=species:S:1:pos:R:3:initial_magmoms:R:1:castep_labels:S:1 n_minim_iter=12 pbc="T T T"
P        3.31079229       4.99024955       0.06047014       0.00000000 NULL
P        3.45314228       3.07480042       1.08889998       0.00000000 NULL
P        7.68644711       5.61690288       1.07669452       0.00000000 NULL
P        6.13388469       2.41018994       3.00423013       0.00000000 NULL
P        8.28904079       4.05322163       5.24659576       0.00000000 NULL
P        5.83970212       1.35106566       4.84712608       0.00000000 NULL
P        3.54928831       3.13924681       3.89978613       0.00000000 NULL
P        6.58213540       5.32427481       3.43565305       0.00000000 NULL
P        2.62191322       5.02452561       2.72851716       0.00000000 NULL
P        4.37740592       2.48984820       5.88016770       0.00000000 NULL
10
Lattice="6.233106781513515 -0.2767742765043607 0.36787728497789035 1.95079538758332 5.749377950123549 -0.5305782460790597 2.1765980344592086 0.4367921521123165 6.00602710363089" Properties=species:S:1:pos:R:3:initial_magmoms:R:1:castep_labels:S:1 n_minim_iter=13 pbc="T T T"
P        3.33205237       4.92902482      -0.00194224       0.00000000 NULL
P        3.48258085       3.02754466       1.05765071       0.00000000 NULL
P        7.72837885       5.52740226       1.02591155       0.00000000 NULL
P        6.17831310       2.32418322       2.98435512       0.00000000 NULL
P        8.36141776       3.91275422       5.20294748       0.00000000 NULL
P        5.91261979       1.23435991       4.83280356       0.00000000 NULL
P        3.59196759       3.03048687       3.85535833       0.00000000 NULL
P        6.64365226       5.19403517       3.37793392       0.00000000 NULL
P        2.64089955       4.92771588       2.65482089       0.00000000 NULL
P        4.41617485       2.35202946       5.84165456       0.00000000 NULL
10
Lattice="6.27036957775474 -0.2931153848465381 0.3922334946877281 1.9483715006109175 5.71001247917523 -0.5881769117861394 2.2087508298041945 0.35625001261519057 5.993003706535998" Properties=species:S:1:pos:R:3:initial_magmoms:R:1:castep_labels:S:1 n_minim_iter=14 pbc="T T T"
P        3.34634813       4.88612502      -0.04770752       0.00000000 NULL
P        3.50396563       2.99309980       1.03477836       0.00000000 NULL
P        7.75915856       5.46146516       0.98921865       0.00000000 NULL
P        6.21189647       2.25719629       2.97047581       0.00000000 NULL
P        8.41632018       3.80787018       5.17280018       0.00000000 NULL
P        5.96841818       1.14832191       4.82357495       0.00000000 NULL
P        3.62514737       2.94921069       3.82460432       0.00000000 NULL
P        6.68846767       5.09739496       3.33544105       0.00000000 NULL
P        2.65336033       4.85704523       2.60066670       0.00000000 NULL
P        4.44419737       2.25016894       5.81454454       0.00000000 NULL
10
Lattice="6.362011099644057 -0.34028147126232006 0.4606977536066753 1.9357176988029827 5.623486660646871 -0.7322634846149754 2.2949662670900612 0.15303245099180593 5.962589167388189" Properties=species:S:1:pos:R:3:initial_magmoms:R:1:castep_labels:S:1 n_minim_iter=15 pbc="T T T"
P        3.37727302       4.78903487      -0.16016830       0.00000000 NULL
P        3.55494230       2.91245204       0.97969055       0.00000000 NULL
P        7.82812988       5.30358700       0.90436709       0.00000000 NULL
P        6.29308229       2.08556152       2.94126355       0.00000000 NULL
P        8.55381142       3.54773520       5.10549038       0.00000000 NULL
P        6.11216640       0.93353278       4.80704430       0.00000000 NULL
P        3.71302093       2.74618050       3.75377043       0.00000000 NULL
P        6.79786179       4.86028879       3.23335747       0.00000000 NULL
P        2.68121833       4.68796695       2.46581699       0.00000000 NULL
P        4.51280503       1.99663843       5.75071876       0.00000000 NULL
10
Lattice="6.404066359675996 -0.3888111953267739 0.5483734616101019 1.9041250126658407 5.625705741956161 -0.8257000893207264 2.3851872199234254 0.013259966770100686 5.909926337731978" Properties=species:S:1:pos:R:3:initial_magmoms:R:1:castep_labels:S:1 n_minim_iter=16 pbc="T T T"
P        3.38002226       4.77480228      -0.22410920       0.00000000 NULL
P        3.57825908       2.89378919       0.94949848       0.00000000 NULL
P        7.83489599       5.24570864       0.88073626       0.00000000 NULL
P        6.33293134       1.97083794       2.93402658       0.00000000 NULL
P        8.64639281       3.40111684       5.06829238       0.00000000 NULL
P        6.22458306       0.79511253       4.79496291       0.00000000 NULL
P        3.79437115       2.62089222       3.70412599       0.00000000 NULL
P        6.86220462       4.73848394       3.16679212       0.00000000 NULL
P        2.69450950       4.62022075       2.36222276       0.00000000 NULL
P        4.56122514       1.83917853       5.68725893       0.00000000 NULL
10
Lattice="6.383790072988416 -0.44785168371200795 0.6020789349620795 1.8402884909805124 5.69012852079481 -0.8891526245650753 2.4208778801472697 -0.07242863059780212 5.895706734392897" Properties=species:S:1:pos:R:3:initial_magmoms:R:1:castep_labels:S:1 n_minim_iter=17 pbc="T T T"
P        3.33147540       4.81263871      -0.26410201       0.00000000 NULL
P        3.54524908       2.90911322       0.92726038       0.00000000 NULL
P        7.74804183       5.24970237       0.85994475       0.00000000 NULL
P        6.29712748       1.90311122       2.93383906       0.00000000 NULL
P        8.62328058       3.32910460       5.05724003       0.00000000 NULL
P        6.23972048       0.70707157       4.80131537       0.00000000 NULL
P        3.80661767       2.56279480       3.68728854       0.00000000 NULL
P        6.82172037       4.70400276       3.12714184       0.00000000 NULL
P        2.65764985       4.62795295       2.30650427       0.00000000 NULL
P        4.54555259       1.75821954       5.66619897       0.00000000 NULL
10
Lattice="6.358462901543842 -0.45011017273665777 0.6130931052916477 1.8291169448697686 5.689439242631791 -0.8954272416858291 2.4238103553604184 -0.08365249949318983 5.875527129320066" Properties=species:S:1:pos:R:3:initial_magmoms:R:1:castep_labels:S:1 n_minim_iter=18 pbc="T T T"
P        3.31757861       4.81067625      -0.26661811       0.00000000 NULL
P        3.53122911       2.90990537       0.92221897       0.00000000 NULL
P        7.71293040       5.24650834       0.85814966       0.00000000 NULL
P        6.27400407       1.89307556       2.92838291       0.00000000 NULL
P        8.59948253       3.31876199       5.04427810       0.00000000 NULL
P        6.22583991       0.69818498       4.79017959       0.00000000 NULL
P        3.80287779       2.55017416       3.67575389       0.00000000 NULL
P        6.79976453       4.69480857       3.11390416       0.00000000 NULL
P        2.65008943       4.62087172       2.29235568       0.00000000 NULL
P        4.53376556       1.74559413       5.64696091       0.00000000 NULL
10
Lattice="6.347918131245556 -0.45861594206075856 0.6228668272300117 1.8172095530455044 5.701332450451133 -0.9048957663468574 2.428697004600129 -0.09654933241412243 5.868981246261083" Properties=species:S:1:pos:R:3:initial_magmoms:R:1:castep_labels:S:1 n_minim_iter=19 pbc="T T T"
P        3.30697759       4.81789572      -0.27130816       0.00000000 NULL
P        3.52210266       2.91490741       0.91802961       0.00000000 NULL
P        7.68972345       5.25037948       0.85453335       0.00000000 NULL
P        6.26182677       1.88320765       2.92719244       0.00000000 NULL
P        8.58899897       3.31015914       5.04022187       0.00000000 NULL
P        6.22296595       0.68612672       4.78856796       0.00000000 NULL
P        3.80309637       2.54107159       3.67149464       0.00000000 NULL
P        6.78657433       4.69213664       3.10526364       0.00000000 NULL
P        2.64304858       4.62318498       2.28277718       0.00000000 NULL
P        4.52708037       1.73411362       5.63997252       0.00000000 NULL
10
Lattice="6.316526828335065 -0.4843985777928466 0.651922153792904 1.7813193002173424 5.738001883240089 -0.9336813514247321 2.4431127102054937 -0.13539185324944136 5.850238527042706" Properties=species:S:1:pos:R:3:initial_magmoms:R:1:castep_labels:S:1 n_minim_iter=20 pbc="T T T"
P        3.27497928       4.84008907      -0.28536771       0.00000000 NULL
P        3.49446719       2.93032669       0.90519632       0.00000000 NULL
P        7.61991753       5.26291522       0.84270460       0.00000000 NULL
P        6.22559209       1.85383115       2.92375240       0.00000000 NULL
P        8.55763070       3.28458438       5.02845690       0.00000000 NULL
P        6.21403485       0.64988466       4.78425397       0.00000000 NULL
P        3.80327699       2.51397163       3.65905064       0.00000000 NULL
P        6.74650245       4.68511513       3.07921160       0.00000000 NULL
P        2.62207359       4.63059149       2.25447431       0.00000000 NULL
P        4.50718043       1.69979315       5.61982426       0.00000000 NULL
10
Lattice="6.308726439050199 -0.4912129137002696 0.6591757896807747 1.7720099973218784 5.7485664595608545 -0.9416311541996846 2.4466477813199066 -0.14567549040144243 5.846386964287867" Properties=species:S:1:pos:R:3:initial_magmoms:R:1:castep_labels:S:1 n_minim_iter=21 pbc="T T T"
P        3.26674287       4.84654845      -0.28912518       0.00000000 NULL
P        3.48725707       2.93487473       0.90162479       0.00000000 NULL
P        7.60180491       5.26721188       0.83870874       0.00000000 NULL
P        6.21646881       1.84642338       2.92294844       0.00000000 NULL
P        8.54985311       3.27834571       5.02581731       0.00000000 NULL
P        6.21168360       0.64050529       4.78364622       0.00000000 NULL
P        3.80315455       2.50718577       3.65618478       0.00000000 NULL
P        6.73597699       4.68427694       3.07223665       0.00000000 NULL
P        2.61682467       4.63305867       2.24753465       0.00000000 NULL
P        4.50197753       1.69096689       5.61550360       0.00000000 NULL
10
Lattice="6.303020235943336 -0.4958538978345193 0.6641619701499004 1.7655298174072867 5.755861809615479 -0.9472195165260164 2.4489833516120285 -0.15285614432499176 5.84340974724089" Properties=species:S:1:pos:R:3:initial_magmoms:R:1:castep_labels:S:1 n_minim_iter=22 pbc="T T T"
P        3.26092853       4.85098859      -0.29176095       0.00000000 NULL
P        3.48210127       2.93806497       0.89900242       0.00000000 NULL
P        7.58889100       5.27025260       0.83568768       0.00000000 NULL
P        6.20988963       1.84128416       2.92218605       0.00000000 NULL
P        8.54414966       3.27403234       5.02364310       0.00000000 NULL
P        6.20975108       0.63403733       4.78292992       0.00000000 NULL
P        3.80291819       2.50240930       3.65395723       0.00000000 NULL
P        6.72839049       4.68373566       3.06707205       0.00000000 NULL
P        2.61315916       4.63467538       2.24255753       0.00000000 NULL
P        4.49817487       1.68479716       5.61219088       0.00000000 NULL
10
Lattice="6.2848983316743885 -0.5105970687925862 0.6798864548153128 1.7449458542774874 5.7794926190214415 -0.9652568265195456 2.4562896876126454 -0.17582594797647363 5.833807672422668" Properties=species:S:1:pos:R:3:initial_magmoms:R:1:castep_labels:S:1 n_minim_iter=23 pbc="T T T"
P        3.24245570       4.86539485      -0.30027282       0.00000000 NULL
P        3.46564499       2.94851823       0.89037349       0.00000000 NULL
P        7.54772798       5.28043342       0.82548922       0.00000000 NULL
P        6.18899375       1.82500798       2.91951655       0.00000000 NULL
P        8.52603988       3.26051305       5.01635289       0.00000000 NULL
P        6.20347648       0.61351359       4.78039140       0.00000000 NULL
P        3.80208793       2.48720645       3.64667591       0.00000000 NULL
P        6.70416412       4.68243842       3.05015512       0.00000000 NULL
P        2.60158136       4.63998901       2.22656322       0.00000000 NULL
P        4.48599953       1.66517448       5.60144138       0.00000000 NULL
10
Lattice="6.246673560238427 -0.5420482543364067 0.7118207228907875 1.7011890477283957 5.833793293377786 -1.0060079718355739 2.470403830480591 -0.2257883755980433 5.812990077897928" Properties=species:S:1:pos:R:3:initial_magmoms:R:1:castep_labels:S:1 n_minim_iter=24 pbc="T T T"
P        3.20317690       4.89890856      -0.31985270       0.00000000 NULL
P        3.43012300       2.97334289       0.86967544       0.00000000 NULL
P        7.45933873       5.30640878       0.79881073       0.00000000 NULL
P        6.14444722       1.79100718       2.91175258       0.00000000 NULL
P        8.48728215       3.23350234       4.99787752       0.00000000 NULL
P        6.18889923       0.57015531       4.77308784       0.00000000 NULL
P        3.79937860       2.45518089       3.62972958       0.00000000 NULL
P        6.65161274       4.68329819       3.01020066       0.00000000 NULL
P        2.57705269       4.65329162       2.19122695       0.00000000 NULL
P        4.45880858       1.62351570       5.57736434       0.00000000 NULL
10
Lattice="6.186058101897979 -0.5883738402168076 0.7503381058174815 1.6352045962550266 5.925428166367412 -1.0724703218082137 2.48142573548085 -0.3005136655090598 5.770751862145375" Properties=species:S:1:pos:R:3:initial_magmoms:R:1:castep_labels:S:1 n_minim_iter=25 pbc="T T T"
P        3.14180151       4.95679761      -0.35437270       0.00000000 NULL
P        3.37283981       3.01770643       0.82902439       0.00000000 NULL
P        7.32016149       5.35723864       0.74023097       0.00000000 NULL
P        6.07204534       1.74390099       2.88690704       0.00000000 NULL
P        8.41900776       3.20038390       4.95005357       0.00000000 NULL
P        6.15536563       0.50928787       4.74617336       0.00000000 NULL
P        3.78617962       2.41092195       3.59213250       0.00000000 NULL
P        6.56371597       4.69657233       2.93177274       0.00000000 NULL
P        2.53674597       4.67978451       2.13010723       0.00000000 NULL
P        4.40824922       1.56437644       5.52740586       0.00000000 NULL
10
Lattice="6.041717025007374 -0.6478238571842077 0.7723109160028121 1.5268625649153849 6.157618891492631 -1.2447688127558478 2.448335676470241 -0.45291110536567364 5.72442659568838" Properties=species:S:1:pos:R:3:initial_magmoms:R:1:castep_labels:S:1 n_minim_iter=26 pbc="T T T"
P        3.02984924       5.11657851      -0.45548640       0.00000000 NULL
P        3.25087941       3.15724035       0.70895425       0.00000000 NULL
P        7.02410558       5.54124012       0.53086794       0.00000000 NULL
P        5.89666609       1.68253881       2.80341459       0.00000000 NULL
P        8.24128398       3.19235073       4.82064951       0.00000000 NULL
P        6.03531990       0.42068020       4.67786625       0.00000000 NULL
P        3.72704022       2.34165051       3.51330687       0.00000000 NULL
P        6.36122631       4.79389289       2.71929318       0.00000000 NULL
P        2.45367793       4.76330865       2.00473781       0.00000000 NULL
P        4.25005336       1.46129042       5.44648456       0.00000000 NULL
10
Lattice="5.835680772428141 -0.5792115407891041 0.6438202832935562 1.519411506513114 6.025732438698072 -1.1707630874647388 2.2724047503734566 -0.3404382663854748 5.455599851572134" Properties=species:S:1:pos:R:3:initial_magmoms:R:1:castep_labels:S:1 n_minim_iter=27 pbc="T T T"
P        2.96134090       5.02364742      -0.41938078       0.00000000 NULL
P        3.14210396       3.15936641       0.64052644       0.00000000 NULL
P        6.78753206       5.48381642       0.43192877       0.00000000 NULL
P        5.66502740       1.70648913       2.61860999       0.00000000 NULL
P        7.93256261       3.27125970       4.53092268       0.00000000 NULL
P        5.77137925       0.54200954       4.39262137       0.00000000 NULL
P        3.56748998       2.35021591       3.34151494       0.00000000 NULL
P        6.13235988       4.80193219       2.52164443       0.00000000 NULL
P        2.36872356       4.70669096       1.94262028       0.00000000 NULL
P        4.00291707       1.53511109       5.18530299       0.00000000 NULL
10
Lattice="5.969179701705263 -0.636202619361806 0.6689252930899753 1.5122172386593709 6.2108966246995365 -1.27403831030651 2.3260634518507075 -0.4315301894494268 5.675881620532777" Properties=species:S:1:pos:R:3:initial_magmoms:R:1:castep_labels:S:1 n_minim_iter=28 pbc="T T T"
P        2.99338610       5.16465039      -0.48496711       0.00000000 NULL
P        3.19256200       3.22619612       0.63645175       0.00000000 NULL
P        6.89745355       5.60599991       0.38841933       0.00000000 NULL
P        5.77878884       1.69690948       2.69816668       0.00000000 NULL
P        8.08871609       3.26668534       4.67832748       0.00000000 NULL
P        5.90094917       0.46722841       4.56329677       0.00000000 NULL
P        3.62898758       2.36071667       3.44637169       0.00000000 NULL
P        6.23437203       4.87989020       2.57095544       0.00000000 NULL
P        2.39157879       4.81062256       1.97593116       0.00000000 NULL
P        4.08123345       1.48822638       5.38170505       0.00000000 NULL
10
Lattice="5.948526142189178 -0.6270911666410381 0.6759834536624759 1.5136126151682037 6.201141376862222 -1.2815955152859593 2.328706976251675 -0.4419256111765314 5.661219941974047" Properties=species:S:1:pos:R:3:initial_magmoms:R:1:castep_labels:S:1 n_minim_iter=29 pbc="T T T"
P        2.98952810       5.15805332      -0.48944208       0.00000000 NULL
P        3.18715396       3.22358545       0.63075328       0.00000000 NULL
P        6.88068896       5.60075038       0.38314277       0.00000000 NULL
P        5.76588607       1.69285747       2.69332356       0.00000000 NULL
P        8.07623893       3.25923970       4.66662468       0.00000000 NULL
P        5.89041738       0.46375040       4.55508239       0.00000000 NULL
P        3.62682557       2.35028700       3.43443537       0.00000000 NULL
P        6.22539970       4.87209564       2.55747900       0.00000000 NULL
P        2.39514477       4.79694002       1.96290985       0.00000000 NULL
P        4.07902247       1.47517524       5.36705632       0.00000000 NULL
