18
Lattice="7.272770000000003 1.7039909663669173e-18 5.373440636144222e-17 -0.3806882171871105 7.26279973248574 5.3734406361443534e-17 -1.1064260244360842 -1.1659395357624427 7.252200571378086" Properties=species:S:1:pos:R:3:initial_magmoms:R:1:castep_labels:S:1 n_minim_iter=1 pbc="T T T"
P       -0.67755615       3.83273098       5.82164527       0.00000000 NULL
P        1.92271287       6.57286578       1.43055531       0.00000000 NULL
P        1.32112892       0.22443966       2.91531066       0.00000000 NULL
P        5.63067739       4.76579428       4.33688992       0.00000000 NULL
P       -0.02209591       4.84759514       2.04117972       0.00000000 NULL
P        0.94354961       5.86518174       5.21102086       0.00000000 NULL
P       -0.06115005       3.68242638       3.71862096       0.00000000 NULL
P        2.10507678       5.96517231       3.53357962       0.00000000 NULL
P        4.10604114       5.78928419       3.49585729       0.00000000 NULL
P        0.21923606       1.69341189       3.75634329       0.00000000 NULL
P        1.61617284       3.31593285       2.64861316       0.00000000 NULL
P        2.55886621       4.30933272       4.60358742       0.00000000 NULL
P        0.76719552       0.78418657       5.54114610       0.00000000 NULL
P        5.04270257       5.28966872       1.71105448       0.00000000 NULL
P        4.22667591      -0.02087110       1.20770751       0.00000000 NULL
P        6.02774074       1.87707114       6.04449307       0.00000000 NULL
P        3.83471795       0.91778599       6.23446300       0.00000000 NULL
P        5.06985368       2.21935839       1.01773758       0.00000000 NULL
18
Lattice="7.299864863464135 -0.01067146232134952 -0.004686734332512886 -0.392763312227902 7.289298861036918 -0.004686734332512876 -1.1135107142646543 -1.1734053037282262 7.285169216326497" Properties=species:S:1:pos:R:3:initial_magmoms:R:1:castep_labels:S:1 n_minim_iter=2 pbc="T T T"
P       -0.68929799       3.84354838       5.84510805       0.00000000 NULL
P        1.91923076       6.59238720       1.43068770       0.00000000 NULL
P        1.32368518       0.22150788       2.92678275       0.00000000 NULL
P        5.64167403       4.77175688       4.34901300       0.00000000 NULL
P       -0.03056308       4.86370966       2.04646346       0.00000000 NULL
P        0.93494905       5.88115569       5.22933230       0.00000000 NULL
P       -0.06926985       3.69318921       3.73244171       0.00000000 NULL
P        2.10183876       5.98107950       3.54335405       0.00000000 NULL
P        4.11073316       5.80177672       3.50448167       0.00000000 NULL
P        0.21494134       1.69643429       3.77131408       0.00000000 NULL
P        1.61595019       3.32346905       2.65660546       0.00000000 NULL
P        2.55926376       4.31752249       4.61919029       0.00000000 NULL
P        0.76531267       0.78219744       5.56444416       0.00000000 NULL
P        5.05252549       5.30001501       1.71135159       0.00000000 NULL
P        4.24198225      -0.02784845       1.21020235       0.00000000 NULL
P        6.04344480       1.87051291       6.06559340       0.00000000 NULL
P        3.84371171       0.91126120       6.25828831       0.00000000 NULL
P        5.08477538       2.21908040       1.01750745       0.00000000 NULL
18
Lattice="7.645002480287265 -0.15010192042317227 -0.06646307937399352 -0.5500686192615202 7.6266649345711315 -0.06646307937399364 -1.2052661530427362 -1.270096172642957 7.709106523449375" Properties=species:S:1:pos:R:3:initial_magmoms:R:1:castep_labels:S:1 n_minim_iter=3 pbc="T T T"
P       -0.84235269       3.97966968       6.14584530       0.00000000 NULL
P        1.87136140       6.83935164       1.43033507       0.00000000 NULL
P        1.35523841       0.18277332       3.07358850       0.00000000 NULL
P        5.77808399       4.84351919       4.50259187       0.00000000 NULL
P       -0.14129093       5.06818116       2.11307291       0.00000000 NULL
P        0.82103877       6.08227357       5.46310747       0.00000000 NULL
P       -0.17567088       3.82917064       3.90921294       0.00000000 NULL
P        2.05655112       6.18146155       3.66696744       0.00000000 NULL
P        4.16684085       5.95768042       3.61293145       0.00000000 NULL
P        0.15826516       1.73348759       3.96324892       0.00000000 NULL
P        1.61101342       3.41760012       2.75803214       0.00000000 NULL
P        2.56108020       4.41877001       4.81814823       0.00000000 NULL
P        0.73921118       0.75492415       5.86345948       0.00000000 NULL
P        5.17447200       5.42875306       1.71272090       0.00000000 NULL
P        4.43687385      -0.11913859       1.24128035       0.00000000 NULL
P        6.24088813       1.78191175       6.33490002       0.00000000 NULL
P        3.95617744       0.82447068       6.56322564       0.00000000 NULL
P        5.27341073       2.21255659       1.01295473       0.00000000 NULL
18
Lattice="7.708719070944001 -0.19915189355023938 -0.0878049838341855 -0.6023865513572758 7.68772668831198 -0.08780498383418549 -1.2283775896637925 -1.2944507495325341 7.795887325460405" Properties=species:S:1:pos:R:3:initial_magmoms:R:1:castep_labels:S:1 n_minim_iter=4 pbc="T T T"
P       -0.89022952       3.99758754       6.20189679       0.00000000 NULL
P        1.83924924       6.87388214       1.41838057       0.00000000 NULL
P        1.35637437       0.16737953       3.09909265       0.00000000 NULL
P        5.78180336       4.83084777       4.52118472       0.00000000 NULL
P       -0.17960298       5.10137797       2.11948676       0.00000000 NULL
P        0.77416927       6.10645263       5.50079060       0.00000000 NULL
P       -0.21298114       3.84961890       3.93998133       0.00000000 NULL
P        2.02246513       6.20530752       3.68029604       0.00000000 NULL
P        4.15563451       5.96724009       3.62077766       0.00000000 NULL
P        0.13641923       1.73183538       3.99949970       0.00000000 NULL
P        1.59718299       3.42477207       2.77163873       0.00000000 NULL
P        2.54148136       4.41986327       4.84863864       0.00000000 NULL
P        0.72290179       0.74093244       5.92145364       0.00000000 NULL
P        5.17587805       5.43342968       1.69882373       0.00000000 NULL
P        4.47369474      -0.15080464       1.24211636       0.00000000 NULL
P        6.26272535       1.73445609       6.37816100       0.00000000 NULL
P        3.96689001       0.78774613       6.61821715       0.00000000 NULL
P        5.29893289       2.19143823       1.00206022       0.00000000 NULL
18
Lattice="7.713849260237434 -0.2345393416107794 -0.10323236084883876 -0.6379940229153469 7.690997512621696 -0.1032323608488387 -1.2388686381338467 -1.305506100647463 7.818412026952353" Properties=species:S:1:pos:R:3:initial_magmoms:R:1:castep_labels:S:1 n_minim_iter=5 pbc="T T T"
P       -0.92075659       3.98915241       6.21021804       0.00000000 NULL
P        1.80510656       6.86163692       1.40172927       0.00000000 NULL
P        1.35008655       0.15483979       3.10054338       0.00000000 NULL
P        5.75302845       4.79461138       4.51140393       0.00000000 NULL
P       -0.20689202       5.09787057       2.11295828       0.00000000 NULL
P        0.73527510       6.09071589       5.49898903       0.00000000 NULL
P       -0.23994031       3.84476852       3.94183216       0.00000000 NULL
P        1.98492937       6.18931165       3.67011515       0.00000000 NULL
P        4.12546202       5.94191375       3.60657434       0.00000000 NULL
P        0.11916316       1.72012021       4.00537297       0.00000000 NULL
P        1.57844837       3.41147737       2.76724853       0.00000000 NULL
P        2.51280885       4.39609613       4.84469878       0.00000000 NULL
P        0.70583271       0.72743426       5.93277816       0.00000000 NULL
P        5.14749592       5.40800994       1.67916916       0.00000000 NULL
P        4.47782436      -0.17333616       1.23596857       0.00000000 NULL
P        6.24447382       1.68833955       6.37597874       0.00000000 NULL
P        3.95393215       0.75659258       6.62405028       0.00000000 NULL
P        5.28839714       2.16283706       0.98789703       0.00000000 NULL
18
Lattice="7.70008215867027 -0.26629219725192355 -0.11673335418568924 -0.6689827188461577 7.675587202714503 -0.11673335418568918 -1.245146538077243 -1.3121216823347224 7.82222057217888" Properties=species:S:1:pos:R:3:initial_magmoms:R:1:castep_labels:S:1 n_minim_iter=6 pbc="T T T"
P       -0.94611149       3.97231657       6.20478254       0.00000000 NULL
P        1.76955844       6.83405957       1.38397133       0.00000000 NULL
P        1.34139248       0.14308169       3.09503393       0.00000000 NULL
P        5.71328165       4.75013026       4.49371995       0.00000000 NULL
P       -0.23116264       5.08249498       2.10281536       0.00000000 NULL
P        0.69832549       6.06197931       5.48593851       0.00000000 NULL
P       -0.26396616       3.83171528       3.93540363       0.00000000 NULL
P        1.94567341       6.16020907       3.65335024       0.00000000 NULL
P        4.08858454       5.90482694       3.58627530       0.00000000 NULL
P        0.10323510       1.70510968       4.00247858       0.00000000 NULL
P        1.55776250       3.39132967       2.75778896       0.00000000 NULL
P        2.48081244       4.36402951       4.83096491       0.00000000 NULL
P        0.68840244       0.71401378       5.93059324       0.00000000 NULL
P        5.10895193       5.37234005       1.65816063       0.00000000 NULL
P        4.47150303      -0.19340190       1.22785770       0.00000000 NULL
P        6.21314747       1.64192378       6.36089617       0.00000000 NULL
P        3.93323403       0.72682394       6.61567153       0.00000000 NULL
P        5.26600784       2.13128628       0.97308234       0.00000000 NULL
18
Lattice="7.6318061389258 -0.41048810173525524 -0.17817181499002063 -0.8094070826406852 7.59985694591568 -0.17817181499002063 -1.2729073457925173 -1.3413757151801933 7.841923787986025" Properties=species:S:1:pos:R:3:initial_magmoms:R:1:castep_labels:S:1 n_minim_iter=7 pbc="T T T"
P       -1.06111430       3.89293833       6.18197112       0.00000000 NULL
P        1.60634692       6.70387953       1.30360905       0.00000000 NULL
P        1.30094774       0.08945665       3.07068869       0.00000000 NULL
P        5.52825493       4.54414632       4.41489148       0.00000000 NULL
P       -0.34157705       5.00880245       2.05724294       0.00000000 NULL
P        0.52967623       5.92691954       5.42833722       0.00000000 NULL
P       -0.37351599       3.76945824       3.90734975       0.00000000 NULL
P        1.76564960       6.02368733       3.57823042       0.00000000 NULL
P        3.91793012       5.73145955       3.49488325       0.00000000 NULL
P        0.03097084       1.63542476       3.99069691       0.00000000 NULL
P        1.46237945       3.29673392       2.71541530       0.00000000 NULL
P        2.33382456       4.21505316       4.77016487       0.00000000 NULL
P        0.60793374       0.65250535       5.92245333       0.00000000 NULL
P        4.92970277       5.20673786       1.56312683       0.00000000 NULL
P        4.43999376      -0.28505207       1.19076725       0.00000000 NULL
P        6.06656147       1.42900703       6.29481292       0.00000000 NULL
P        3.83587965       0.59058055       6.57897568       0.00000000 NULL
P        5.16050731       1.98645856       0.90660449       0.00000000 NULL
18
Lattice="7.525726536920442 -0.7074890568196668 -0.3377299320512663 -1.1004482131271072 7.478376455103973 -0.3377299320512662 -1.3682620840431314 -1.4418594861628349 7.9780792544354995" Properties=species:S:1:pos:R:3:initial_magmoms:R:1:castep_labels:S:1 n_minim_iter=8 pbc="T T T"
P       -1.32930346       3.72406557       6.19037785       0.00000000 NULL
P        1.26847452       6.46157534       1.11224155       0.00000000 NULL
P        1.21198614      -0.03346772       3.04210403       0.00000000 NULL
P        5.15387868       4.12045514       4.26051537       0.00000000 NULL
P       -0.58074167       4.87126878       1.96279218       0.00000000 NULL
P        0.16202697       5.65399018       5.33982722       0.00000000 NULL
P       -0.62155412       3.64280235       3.87727395       0.00000000 NULL
P        1.38667300       5.75904992       3.42534545       0.00000000 NULL
P        3.57506917       5.38433232       3.29842175       0.00000000 NULL
P       -0.13280010       1.47702059       4.00419765       0.00000000 NULL
P        1.26305407       3.10000234       2.63333127       0.00000000 NULL
P        2.02737742       3.90543785       4.66928813       0.00000000 NULL
P        0.41330155       0.50713720       5.96498395       0.00000000 NULL
P        4.57220827       4.88974721       1.33763545       0.00000000 NULL
P        4.40091722      -0.48324094       1.10198584       0.00000000 NULL
P        5.76995774       0.95943885       6.20063356       0.00000000 NULL
P        3.62574486       0.28517942       6.54941167       0.00000000 NULL
P        4.96201494       1.69332608       0.75320773       0.00000000 NULL
18
Lattice="7.423085491340987 -0.6015480404941177 -0.3394044215249863 -0.9892797557607491 7.381421531224275 -0.3394044215249863 -1.3713007926653547 -1.445061643778495 7.827602281051366" Properties=species:S:1:pos:R:3:initial_magmoms:R:1:castep_labels:S:1 n_minim_iter=9 pbc="T T T"
P       -1.26452172       3.67587933       6.07521581       0.00000000 NULL
P        1.32547436       6.40518862       1.07357764       0.00000000 NULL
P        1.20217354      -0.01877978       2.95950990       0.00000000 NULL
P        5.14418594       4.13526939       4.18928355       0.00000000 NULL
P       -0.51460731       4.81175090       1.92017518       0.00000000 NULL
P        0.23041372       5.59684584       5.22861827       0.00000000 NULL
P       -0.58287821       3.60879666       3.80696841       0.00000000 NULL
P        1.42814523       5.72799098       3.34182503       0.00000000 NULL
P        3.62607073       5.37614818       3.21243406       0.00000000 NULL
P       -0.11646884       1.43230128       3.93635938       0.00000000 NULL
P        1.29739011       3.07066319       2.57597461       0.00000000 NULL
P        2.06396234       3.87846855       4.57281884       0.00000000 NULL
P        0.38881929       0.53008871       5.85424336       0.00000000 NULL
P        4.55349542       4.91877846       1.29455008       0.00000000 NULL
P        4.38186608      -0.42382733       1.06030045       0.00000000 NULL
P        5.71511706       0.98113784       6.08849300       0.00000000 NULL
P        3.59326184       0.33744218       6.41906627       0.00000000 NULL
P        4.91361223       1.72881284       0.72972718       0.00000000 NULL
18
Lattice="7.531844946442217 -0.6465303241369008 -0.3608328019502027 -1.0398933129985182 7.487677320428325 -0.3608328019502027 -1.4020030672296466 -1.4774153619320305 8.034569348279888" Properties=species:S:1:pos:R:3:initial_magmoms:R:1:castep_labels:S:1 n_minim_iter=10 pbc="T T T"
P       -1.31425970       3.71583097       6.23094853       0.00000000 NULL
P        1.31041762       6.48168696       1.08195522       0.00000000 NULL
P        1.21090204      -0.03003175       3.03051809       0.00000000 NULL
P        5.18332299       4.15606162       4.28238567       0.00000000 NULL
P       -0.55149802       4.87569550       1.95996673       0.00000000 NULL
P        0.19206939       5.65925863       5.35293703       0.00000000 NULL
P       -0.61941454       3.65142920       3.89990642       0.00000000 NULL
P        1.41110229       5.79116544       3.41299734       0.00000000 NULL
P        3.64429582       5.42489572       3.27729456       0.00000000 NULL
P       -0.13675195       1.44046931       4.03560920       0.00000000 NULL
P        1.29610231       3.09730758       2.63210117       0.00000000 NULL
P        2.06473070       3.90727969       4.68080258       0.00000000 NULL
P        0.37477841       0.52303776       6.00632001       0.00000000 NULL
P        4.58724537       4.96208896       1.30658375       0.00000000 NULL
P        4.44792454      -0.45494710       1.07833738       0.00000000 NULL
P        5.77709557       0.94571867       6.23456637       0.00000000 NULL
P        3.62807830       0.30883257       6.57569302       0.00000000 NULL
P        4.97144868       1.72446145       0.73721073       0.00000000 NULL
18
Lattice="7.474141050073127 -0.6458775177095014 -0.35246090410650943 -1.0362209301540475 7.430086701256017 -0.35246090410650943 -1.3849808539385942 -1.45947754139646 7.988752930136453" Properties=species:S:1:pos:R:3:initial_magmoms:R:1:castep_labels:S:1 n_minim_iter=11 pbc="T T T"
P       -1.30153556       3.69201087       6.20109134       0.00000000 NULL
P        1.29786180       6.43122712       1.08273979       0.00000000 NULL
P        1.20384205      -0.02785987       3.01348546       0.00000000 NULL
P        5.14377524       4.12399825       4.27034567       0.00000000 NULL
P       -0.54851135       4.83969286       1.95415499       0.00000000 NULL
P        0.19116970       5.61916059       5.32967614       0.00000000 NULL
P       -0.61445515       3.62716047       3.88257499       0.00000000 NULL
P        1.39858805       5.74848318       3.40125614       0.00000000 NULL
P        3.61724587       5.38395230       3.26780836       0.00000000 NULL
P       -0.13428986       1.43062533       4.01602277       0.00000000 NULL
P        1.28664470       3.07404066       2.62296772       0.00000000 NULL
P        2.05046137       3.87894224       4.66086341       0.00000000 NULL
P        0.37349885       0.52516354       5.97554172       0.00000000 NULL
P        4.54804623       4.92425550       1.30828942       0.00000000 NULL
P        4.41721281      -0.45347561       1.07522667       0.00000000 NULL
P        5.73700922       0.93731129       6.20860446       0.00000000 NULL
P        3.60534778       0.30982984       6.54450322       0.00000000 NULL
P        4.93225366       1.70810861       0.73932791       0.00000000 NULL
18
Lattice="7.466673105156545 -0.6532816306487054 -0.35215206578023256 -1.0432239882512786 7.422241430898636 -0.3521520657802326 -1.3823497747082427 -1.4567049391359939 7.998280194429763" Properties=species:S:1:pos:R:3:initial_magmoms:R:1:castep_labels:S:1 n_minim_iter=12 pbc="T T T"
P       -1.30406064       3.68826032       6.21052574       0.00000000 NULL
P        1.28963511       6.42146828       1.08345033       0.00000000 NULL
P        1.20226006      -0.02853008       3.01530420       0.00000000 NULL
P        5.13252180       4.11313637       4.27867188       0.00000000 NULL
P       -0.55351072       4.83443960       1.95709888       0.00000000 NULL
P        0.18431415       5.61195131       5.33687719       0.00000000 NULL
P       -0.61859971       3.62378411       3.88824483       0.00000000 NULL
P        1.38990292       5.74032201       3.40573124       0.00000000 NULL
P        3.60875232       5.37412500       3.27212783       0.00000000 NULL
P       -0.13676055       1.42714487       4.02184824       0.00000000 NULL
P        1.28249690       3.06787940       2.62678144       0.00000000 NULL
P        2.04455714       3.87093008       4.66719463       0.00000000 NULL
P        0.37005162       0.52568699       5.98392837       0.00000000 NULL
P        4.53550313       4.91519382       1.31004770       0.00000000 NULL
P        4.41550697      -0.45827710       1.07577835       0.00000000 NULL
P        5.72987491       0.92678933       6.21819773       0.00000000 NULL
P        3.60131459       0.30572886       6.55306304       0.00000000 NULL
P        4.92429798       1.69987416       0.74091303       0.00000000 NULL
18
Lattice="7.440500996457613 -0.6836483320799183 -0.3513877232105929 -1.0721790985641944 7.3945156772329925 -0.351387723210593 -1.3727377004135137 -1.4465758413080374 8.03108811642014" Properties=species:S:1:pos:R:3:initial_magmoms:R:1:castep_labels:S:1 n_minim_iter=13 pbc="T T T"
P       -1.31499497       3.67476756       6.24468972       0.00000000 NULL
P        1.25702187       6.38513053       1.08362295       0.00000000 NULL
P        1.19644792      -0.03088409       3.01858784       0.00000000 NULL
P        5.08905321       4.07110041       4.30972483       0.00000000 NULL
P       -0.57436107       4.81581915       1.96707850       0.00000000 NULL
P        0.15630253       5.58578440       5.36123418       0.00000000 NULL
P       -0.63646875       3.61233247       3.90830124       0.00000000 NULL
P        1.35488836       5.71080262       3.42001144       0.00000000 NULL
P        3.57730255       5.33768045       3.28544914       0.00000000 NULL
P       -0.14752733       1.41249583       4.04286354       0.00000000 NULL
P        1.26691074       3.04379777       2.63988966       0.00000000 NULL
P        2.02227477       3.83979205       4.68842302       0.00000000 NULL
P        0.35460911       0.52928664       6.01375316       0.00000000 NULL
P        4.48558494       4.88246338       1.31455952       0.00000000 NULL
P        4.41296242      -0.47853904       1.07573736       0.00000000 NULL
P        5.70446073       0.88242764       6.25257532       0.00000000 NULL
P        3.58691204       0.28939798       6.58254126       0.00000000 NULL
P        4.89433744       1.66714844       0.74577142       0.00000000 NULL
18
Lattice="7.441455535648048 -0.6960184242635339 -0.3527201298943962 -1.084582197249376 7.394821403749454 -0.3527201298943963 -1.3722284347523308 -1.4460391827737429 8.009904025093132" Properties=species:S:1:pos:R:3:initial_magmoms:R:1:castep_labels:S:1 n_minim_iter=14 pbc="T T T"
P       -1.32018654       3.67336221       6.23523060       0.00000000 NULL
P        1.24721425       6.37886084       1.06923318       0.00000000 NULL
P        1.19595514      -0.02906398       2.99636957       0.00000000 NULL
P        5.07627051       4.05996954       4.30809421       0.00000000 NULL
P       -0.58448018       4.81617668       1.96050456       0.00000000 NULL
P        0.14447652       5.58434321       5.34395921       0.00000000 NULL
P       -0.64828447       3.61510768       3.90005431       0.00000000 NULL
P        1.34055918       5.71092917       3.40440946       0.00000000 NULL
P        3.57727402       5.33520279       3.26829322       0.00000000 NULL
P       -0.15599384       1.40112630       4.03617055       0.00000000 NULL
P        1.26623063       3.03452514       2.63246107       0.00000000 NULL
P        2.02055979       3.82942889       4.67200271       0.00000000 NULL
P        0.33955185       0.53926762       6.00171169       0.00000000 NULL
P        4.46389019       4.88544985       1.30275208       0.00000000 NULL
P        4.43065886      -0.48997796       1.06313648       0.00000000 NULL
P        5.70587099       0.85382651       6.24132730       0.00000000 NULL
P        3.58720824       0.28530223       6.56457076       0.00000000 NULL
P        4.88750378       1.65553933       0.73989302       0.00000000 NULL
18
Lattice="7.383778005650321 -0.7170556239012615 -0.34759565354201793 -1.1025714656896741 7.336121766133714 -0.347595653542018 -1.3549712200563118 -1.4278537203507273 8.046863534476081" Properties=species:S:1:pos:R:3:initial_magmoms:R:1:castep_labels:S:1 n_minim_iter=15 pbc="T T T"
P       -1.31708349       3.64299270       6.28418325       0.00000000 NULL
P        1.21929498       6.31580034       1.06748899       0.00000000 NULL
P        1.18694417      -0.02489901       2.99126035       0.00000000 NULL
P        5.01322998       4.00719876       4.36041189       0.00000000 NULL
P       -0.59878481       4.77967398       1.97513814       0.00000000 NULL
P        0.12177083       5.53898757       5.37653410       0.00000000 NULL
P       -0.66346399       3.59180668       3.93014088       0.00000000 NULL
P        1.30462410       5.66575619       3.42153135       0.00000000 NULL
P        3.54284443       5.28726939       3.28913870       0.00000000 NULL
P       -0.16833794       1.37646636       4.06253354       0.00000000 NULL
P        1.25272525       2.99516492       2.65327424       0.00000000 NULL
P        2.00074954       3.78342466       4.69839799       0.00000000 NULL
P        0.31642560       0.55245417       6.04249778       0.00000000 NULL
P        4.39110160       4.84630277       1.30917445       0.00000000 NULL
P        4.42221533      -0.50826010       1.05915838       0.00000000 NULL
P        5.66527651       0.80166406       6.29251386       0.00000000 NULL
P        3.56132810       0.27671955       6.60221434       0.00000000 NULL
P        4.83631044       1.62028187       0.74945790       0.00000000 NULL
18
Lattice="7.465365549474841 -0.7259122876476916 -0.35847756858549495 -1.1156866324956531 7.417133865228148 -0.358477568585495 -1.3768146274287913 -1.450872062010143 8.048019261188097" Properties=species:S:1:pos:R:3:initial_magmoms:R:1:castep_labels:S:1 n_minim_iter=16 pbc="T T T"
P       -1.33585957       3.67537629       6.28344230       0.00000000 NULL
P        1.23260193       6.38199267       1.04762183       0.00000000 NULL
P        1.19736424      -0.02433723       2.97879977       0.00000000 NULL
P        5.05984338       4.04590066       4.35226436       0.00000000 NULL
P       -0.60906438       4.83122645       1.96690979       0.00000000 NULL
P        0.11637992       5.59569165       5.36415434       0.00000000 NULL
P       -0.67867747       3.62896564       3.92619501       0.00000000 NULL
P        1.31334870       5.72814084       3.40486912       0.00000000 NULL
P        3.58309242       5.34621343       3.27021185       0.00000000 NULL
P       -0.17846545       1.38232526       4.06085228       0.00000000 NULL
P        1.26719895       3.02064646       2.64611886       0.00000000 NULL
P        2.02268952       3.81677409       4.68494527       0.00000000 NULL
P        0.30821224       0.55933355       6.04152076       0.00000000 NULL
P        4.43043070       4.90328187       1.28954337       0.00000000 NULL
P        4.47982679      -0.51861807       1.04606280       0.00000000 NULL
P        5.72526489       0.79381086       6.28500133       0.00000000 NULL
P        3.59415507       0.27493880       6.59403089       0.00000000 NULL
P        4.88643601       1.63673020       0.73703324       0.00000000 NULL
18
Lattice="7.408018044811911 -0.7193731477212502 -0.3491725821977782 -1.1061546408310323 7.360207265321357 -0.34917258219777825 -1.3598598553924044 -1.4330053103245628 7.9928086208972955" Properties=species:S:1:pos:R:3:initial_magmoms:R:1:castep_labels:S:1 n_minim_iter=17 pbc="T T T"
P       -1.31928390       3.65204876       6.24636795       0.00000000 NULL
P        1.22590438       6.33414008       1.04809551       0.00000000 NULL
P        1.19103661      -0.02089194       2.95883088       0.00000000 NULL
P        5.02521086       4.01951857       4.33563259       0.00000000 NULL
P       -0.60173926       4.79618992       1.95918473       0.00000000 NULL
P        0.12089111       5.55768984       5.33527873       0.00000000 NULL
P       -0.67023408       3.60525204       3.90488528       0.00000000 NULL
P        1.30661101       5.68842959       3.38957819       0.00000000 NULL
P        3.56049144       5.30985961       3.25845809       0.00000000 NULL
P       -0.17420524       1.37427746       4.03600538       0.00000000 NULL
P        1.26044155       2.99963640       2.63465159       0.00000000 NULL
P        2.01245632       3.79210127       4.65981188       0.00000000 NULL
P        0.30947260       0.56200598       6.00386608       0.00000000 NULL
P        4.39696716       4.86936265       1.29059739       0.00000000 NULL
P        4.44823338      -0.51350057       1.04217319       0.00000000 NULL
P        5.68763993       0.79257237       6.25229028       0.00000000 NULL
P        3.57255023       0.27979416       6.55554094       0.00000000 NULL
P        4.84959569       1.62553057       0.73892253       0.00000000 NULL
