12
Lattice="4.986787390567819 0.0 0.0 0.0 6.70675405875883 0.0 0.0 0.0 6.879624259301825" Properties=species:S:1:pos:R:3:initial_magmoms:R:1:castep_labels:S:1:forces:R:3 n_minim_iter=1 energy=-64.040319039022 stress="-0.010991912298986743 0.0 -0.0 0.0 0.001419878672934554 -0.0 -0.0 -0.0 0.0061269916068448635" free_energy=-64.040319039022 pbc="T T T"
P        3.70588268       1.60239922       5.13613498       0.00000000 NULL       0.02250400      -0.07286900       0.06447900
P        1.28090471       1.60239922       1.74348928       0.00000000 NULL      -0.02250400      -0.07286900      -0.06447900
P        1.21248898       1.60239922       5.18330141       0.00000000 NULL       0.02250400      -0.07287000      -0.06448000
P        3.77429841       1.60239922       1.69632285       0.00000000 NULL      -0.02250400      -0.07287000       0.06448000
P        3.65203683       3.07802162       3.35798819       0.00000000 NULL       0.00955000       0.09129800       0.13530600
P        1.33475056       3.07802162       3.52163607       0.00000000 NULL      -0.00955000       0.09129800      -0.13530600
P        1.15864314       3.07802162       6.96144820       0.00000000 NULL       0.00955200       0.09129900      -0.13530400
P        3.82814425       3.07802162      -0.08182394       0.00000000 NULL      -0.00955200       0.09129900       0.13530400
P        3.26142572       5.14605882       6.10464360       0.00000000 NULL      -0.01586200      -0.01842900       0.29117500
P        1.72536167       5.14605882       0.77498066       0.00000000 NULL       0.01586200      -0.01842900      -0.29117500
P        0.76803203       5.14605882       4.21479279       0.00000000 NULL      -0.01586200      -0.01842900      -0.29117500
P        4.21875537       5.14605882       2.66483147       0.00000000 NULL       0.01586200      -0.01842900       0.29117500
12
Lattice="5.05834639201626 0.0 0.0 0.0 6.694421969376922 0.0 0.0 0.0 6.825203921099739" Properties=species:S:1:pos:R:3:initial_magmoms:R:1:castep_labels:S:1:forces:R:3 n_minim_iter=2 energy=-64.067664371446 stress="0.002223867792345001 -0.0 -0.0 -0.0 -0.00038417296642342626 0.0 -0.0 0.0 0.0026561975908023583" free_energy=-64.067664371446 pbc="T T T"
P        3.75918965       1.59904304       5.09586664       0.00000000 NULL       0.01113700      -0.11729100       0.05445700
P        1.29915674       1.59904304       1.72933728       0.00000000 NULL      -0.01113700      -0.11729100      -0.05445700
P        1.23001646       1.59904304       5.14193924       0.00000000 NULL       0.01113700      -0.11729100      -0.05445700
P        3.82832994       1.59904304       1.68326468       0.00000000 NULL      -0.01113700      -0.11729100       0.05445700
P        3.70449712       3.07287526       3.33218148       0.00000000 NULL      -0.11836300       0.12244100       0.15166200
P        1.35384927       3.07287526       3.49302244       0.00000000 NULL       0.11836300       0.12244100      -0.15166300
P        1.17532392       3.07287526       6.90562440       0.00000000 NULL      -0.11836200       0.12244200      -0.15166300
P        3.88302247       3.07287526      -0.08042048       0.00000000 NULL       0.11836200       0.12244200       0.15166300
P        3.30813563       5.13649284       6.05798099       0.00000000 NULL      -0.06123100      -0.00515100       0.35684200
P        1.75021077       5.13649284       0.76722293       0.00000000 NULL       0.06123100      -0.00515100      -0.35684200
P        0.77896243       5.13649284       4.17982489       0.00000000 NULL      -0.06123000      -0.00515000      -0.35684000
P        4.27938396       5.13649284       2.64537903       0.00000000 NULL       0.06123000      -0.00515000       0.35684000
12
Lattice="5.052632531727389 0.0 0.0 0.0 6.6966309804167805 0.0 0.0 0.0 6.779192383424147" Properties=species:S:1:pos:R:3:initial_magmoms:R:1:castep_labels:S:1:forces:R:3 n_minim_iter=3 energy=-64.073851560174 stress="-0.0017172951715237713 -0.0 4.359613037302357e-08 -0.0 -0.0028599497486007193 0.0 4.359613037302357e-08 0.0 -0.003624713067604299" free_energy=-64.073851560174 pbc="T T T"
P        3.75506517       1.59852178       5.06202813       0.00000000 NULL       0.00882400      -0.16084500       0.04630400
P        1.29756737       1.59852178       1.71716425       0.00000000 NULL      -0.00882400      -0.16084500      -0.04630400
P        1.22874890       1.59852178       5.10676044       0.00000000 NULL       0.00882300      -0.16084600      -0.04630500
P        3.82388363       1.59852178       1.67243194       0.00000000 NULL      -0.00882300      -0.16084600       0.04630500
P        3.69932539       3.07500280       3.31109839       0.00000000 NULL      -0.11813100       0.14313400       0.15881100
P        1.35330714       3.07500280       3.46809400       0.00000000 NULL       0.11813100       0.14313400      -0.15881100
P        1.17300913       3.07500280       6.85769019       0.00000000 NULL      -0.11813300       0.14313400      -0.15880900
P        3.87962340       3.07500280      -0.07849780       0.00000000 NULL       0.11813300       0.14313400       0.15880900
P        3.30386236       5.13812313       6.02035708       0.00000000 NULL       0.00043300       0.01771200       0.26707600
P        1.74877017       5.13812313       0.75883531       0.00000000 NULL      -0.00043300       0.01771200      -0.26707600
P        0.77754609       5.13812313       4.14843150       0.00000000 NULL       0.00043000       0.01771100      -0.26708000
P        4.27508644       5.13812313       2.63076088       0.00000000 NULL      -0.00043000       0.01771100       0.26708000
12
Lattice="5.066365810411635 0.0 0.0 0.0 6.765751926149441 0.0 0.0 0.0 6.7550972846458235" Properties=species:S:1:pos:R:3:initial_magmoms:R:1:castep_labels:S:1:forces:R:3 n_minim_iter=4 energy=-64.087897971073 stress="0.0001806955474172604 0.0 0.0 0.0 0.005230756049733208 0.0 0.0 0.0 -0.0023087915786153775" free_energy=-64.087897971073 pbc="T T T"
P        3.76568375       1.61023009       5.04586720       0.00000000 NULL       0.01080700      -0.02041300       0.06845800
P        1.30068206       1.61023009       1.70923008       0.00000000 NULL      -0.01080700      -0.02041300      -0.06845800
P        1.23250085       1.61023009       5.08677873       0.00000000 NULL       0.01080700      -0.02041300      -0.06845900
P        3.83386496       1.61023009       1.66831856       0.00000000 NULL      -0.01080700      -0.02041300       0.06845900
P        3.70532329       3.11142568       3.30472753       0.00000000 NULL      -0.09778300       0.06034000       0.09195900
P        1.36104252       3.11142568       3.45036976       0.00000000 NULL       0.09778300       0.06034000      -0.09195900
P        1.17214039       3.11142568       6.82791840       0.00000000 NULL      -0.09778400       0.06033900      -0.09195700
P        3.89422542       3.11142568      -0.07282112       0.00000000 NULL       0.09778400       0.06033900       0.09195700
P        3.31159973       5.19126530       6.01009999       0.00000000 NULL       0.09856900      -0.03992600       0.21054600
P        1.75476608       5.19126530       0.74499729       0.00000000 NULL      -0.09856900      -0.03992600      -0.21054600
P        0.77841682       5.19126530       4.12254593       0.00000000 NULL       0.09856700      -0.03992700      -0.21054800
P        4.28794899       5.19126530       2.63255135       0.00000000 NULL      -0.09856700      -0.03992700       0.21054800
12
Lattice="5.104990698273256 0.0 0.0 0.0 6.646197389942988 0.0 0.0 0.0 6.8201275898921985" Properties=species:S:1:pos:R:3:initial_magmoms:R:1:castep_labels:S:1:forces:R:3 n_minim_iter=5 energy=-64.120312689177 stress="-0.00020518707186309296 -0.0 0.0 -0.0 -0.0022312581523511697 0.0 0.0 0.0 0.00033669176008537427" free_energy=-64.120312689177 pbc="T T T"
P        3.79600445       1.56773153       5.10223038       0.00000000 NULL      -0.00859800       0.15169100       0.13948200
P        1.30898625       1.56773153       1.71789721       0.00000000 NULL       0.00859800       0.15169100      -0.13948200
P        1.24350910       1.56773153       5.12796101       0.00000000 NULL      -0.00859900       0.15169100      -0.13948000
P        3.86148160       1.56773153       1.69216658       0.00000000 NULL       0.00859900       0.15169100       0.13948000
P        3.71819753       3.07173543       3.35536345       0.00000000 NULL      -0.23601000      -0.32363800      -0.01320600
P        1.38679316       3.07173543       3.46476414       0.00000000 NULL       0.23601000      -0.32363800       0.01320600
P        1.16570219       3.07173543       6.87482793       0.00000000 NULL      -0.23601100      -0.32363900       0.01320400
P        3.93928851       3.07173543      -0.05470034       0.00000000 NULL       0.23601100      -0.32363900      -0.01320400
P        3.33724993       5.09828737       6.10759089       0.00000000 NULL       0.27889800       0.17194700       0.01791500
P        1.76774077       5.09828737       0.71253670       0.00000000 NULL      -0.27889800       0.17194700      -0.01791500
P        0.78475458       5.09828737       4.12260050       0.00000000 NULL       0.27889800       0.17194700      -0.01791400
P        4.32023611       5.09828737       2.69752709       0.00000000 NULL      -0.27889800       0.17194700       0.01791400
12
Lattice="5.172757817181962 0.0 0.0 0.0 6.568429934423649 0.0 0.0 0.0 6.8692001273244925" Properties=species:S:1:pos:R:3:initial_magmoms:R:1:castep_labels:S:1:forces:R:3 n_minim_iter=6 energy=-64.201193177495 stress="0.0009375557796739097 0.0 0.0 0.0 -0.0022586687908458924 0.0 0.0 0.0 0.0023640699067401356" free_energy=-64.201193177495 pbc="T T T"
P        3.84825031       1.54464638       5.16860282       0.00000000 NULL      -0.04308700       0.13427900      -0.00673000
P        1.32450750       1.54464638       1.70059731       0.00000000 NULL       0.04308700       0.13427900       0.00673000
P        1.26187140       1.54464638       5.13519738       0.00000000 NULL      -0.04308700       0.13427900       0.00673000
P        3.91088641       1.54464638       1.73400275       0.00000000 NULL       0.04308700       0.13427900      -0.00673000
P        3.71267031       3.02503824       3.40962394       0.00000000 NULL       0.09722000      -0.19028800      -0.11096900
P        1.46008750       3.02503824       3.45957619       0.00000000 NULL      -0.09722000      -0.19028800       0.11096900
P        1.12629140       3.02503824       6.89417625       0.00000000 NULL       0.09721800      -0.19028800       0.11097000
P        4.04646641       3.02503824      -0.02497613       0.00000000 NULL      -0.09721800      -0.19028800      -0.11097000
P        3.41818055       5.05412775       6.22144953       0.00000000 NULL       0.21542400       0.05600900       0.10743100
P        1.75457727       5.05412775       0.64775059       0.00000000 NULL      -0.21542400       0.05600900      -0.10743100
P        0.83180164       5.05412775       4.08235066       0.00000000 NULL       0.21542200       0.05600800      -0.10743200
P        4.34095618       5.05412775       2.78684947       0.00000000 NULL      -0.21542200       0.05600800       0.10743200
12
Lattice="5.2024691548175905 0.0 0.0 0.0 6.593176572016029 0.0 0.0 0.0 6.930728312236933" Properties=species:S:1:pos:R:3:initial_magmoms:R:1:castep_labels:S:1:forces:R:3 n_minim_iter=7 energy=-64.269957170644 stress="0.011767786114051116 -0.0 -0.0 -0.0 0.0003693693763024176 0.0 -0.0 0.0 0.007694963984256219" free_energy=-64.269957170644 pbc="T T T"
P        3.86152102       1.55832704       5.22753429       0.00000000 NULL      -0.02872900       0.10025700      -0.11542600
P        1.34094813       1.55832704       1.70319402       0.00000000 NULL       0.02872900       0.10025700       0.11542600
P        1.26028645       1.55832704       5.16855817       0.00000000 NULL      -0.02872900       0.10025600       0.11542500
P        3.94218271       1.55832704       1.76217014       0.00000000 NULL       0.02872900       0.10025600      -0.11542500
P        3.73552401       3.02268328       3.44662726       0.00000000 NULL       0.00405000      -0.18884000      -0.04535600
P        1.46694514       3.02268328       3.48410105       0.00000000 NULL      -0.00405000      -0.18884000       0.04535600
P        1.13428944       3.02268328       6.94946520       0.00000000 NULL       0.00405100      -0.18883900       0.04535800
P        4.06817972       3.02268328      -0.01873689       0.00000000 NULL      -0.00405100      -0.18883900      -0.04535800
P        3.50895704       5.07905977       6.37646605       0.00000000 NULL      -0.08782700       0.08858300       0.14765800
P        1.69351211       5.07905977       0.55426226       0.00000000 NULL       0.08782700       0.08858300      -0.14765800
P        0.90772246       5.07905977       4.01962642       0.00000000 NULL      -0.08782700       0.08858300      -0.14765900
P        4.29474669       5.07905977       2.91110190       0.00000000 NULL       0.08782700       0.08858300       0.14765900
12
Lattice="5.2043783041837735 0.0 0.0 0.0 6.575100769464511 0.0 0.0 0.0 6.9672093984496755" Properties=species:S:1:pos:R:3:initial_magmoms:R:1:castep_labels:S:1:forces:R:3 n_minim_iter=8 energy=-64.284245266657 stress="0.013112744690689078 0.0 -0.0 0.0 0.0019889008484385274 0.0 -0.0 0.0 0.008334651370626583" free_energy=-64.284245266657 pbc="T T T"
P        3.85814085       1.55663616       5.23471758       0.00000000 NULL       0.00431900       0.01789600       0.07005400
P        1.34623745       1.55663616       1.73249182       0.00000000 NULL      -0.00431900       0.01789600      -0.07005400
P        1.25595170       1.55663616       5.21609652       0.00000000 NULL       0.00431900       0.01789600      -0.07005500
P        3.94842660       1.55663616       1.75111288       0.00000000 NULL      -0.00431900       0.01789600       0.07005500
P        3.74236234       2.99430918       3.47096666       0.00000000 NULL      -0.00973000       0.00775800      -0.17423100
P        1.46201597       2.99430918       3.49624274       0.00000000 NULL       0.00973000       0.00775800       0.17423100
P        1.14017319       2.99430918       6.97984744       0.00000000 NULL      -0.00972800       0.00775900       0.17423300
P        4.06420512       2.99430918      -0.01263804       0.00000000 NULL       0.00972800       0.00775900      -0.17423300
P        3.52006257       5.08264078       6.44500420       0.00000000 NULL       0.00910600      -0.02565400       0.08963200
P        1.68431574       5.08264078       0.52220520       0.00000000 NULL      -0.00910600      -0.02565400      -0.08963200
P        0.91787341       5.08264078       4.00580989       0.00000000 NULL       0.00910700      -0.02565400      -0.08963200
P        4.28650489       5.08264078       2.96139950       0.00000000 NULL      -0.00910700      -0.02565400       0.08963200
12
Lattice="5.170440699566977 0.0 0.0 0.0 6.570120008511769 0.0 0.0 0.0 6.936843090478472" Properties=species:S:1:pos:R:3:initial_magmoms:R:1:castep_labels:S:1:forces:R:3 n_minim_iter=9 energy=-64.310244038325 stress="0.009498638545538857 0.0 0.0 0.0 0.0028651699198918258 0.0 0.0 0.0 0.005058403875336665" free_energy=-64.310244038325 pbc="T T T"
P        3.83337053       1.53736683       5.20184511       0.00000000 NULL       0.05926200       0.04937500       0.02630700
P        1.33707017       1.53736683       1.73499798       0.00000000 NULL      -0.05926200       0.04937500      -0.02630700
P        1.24815018       1.53736683       5.20341952       0.00000000 NULL       0.05926200       0.04937500      -0.02630700
P        3.92229052       1.53736683       1.73342357       0.00000000 NULL      -0.05926200       0.04937500       0.02630700
P        3.72574471       2.98668608       3.43213302       0.00000000 NULL       0.04720800       0.06293400       0.00648200
P        1.44469599       2.98668608       3.50471007       0.00000000 NULL      -0.04720800       0.06293400      -0.00648200
P        1.14052436       2.98668608       6.97313161       0.00000000 NULL       0.04720600       0.06293300      -0.00648100
P        4.02991634       2.98668608      -0.03628852       0.00000000 NULL      -0.04720600       0.06293300       0.00648100
P        3.52204935       5.10223577       6.43826964       0.00000000 NULL      -0.10964500      -0.11230900       0.12420900
P        1.64839135       5.10223577       0.49857345       0.00000000 NULL       0.10964500      -0.11230900      -0.12420900
P        0.93682900       5.10223577       3.96699500       0.00000000 NULL      -0.10964800      -0.11230900      -0.12421000
P        4.23361170       5.10223577       2.96984809       0.00000000 NULL       0.10964800      -0.11230900       0.12421000
12
Lattice="5.132047728049965 0.0 0.0 0.0 6.60709300029484 0.0 0.0 0.0 6.931212286125697" Properties=species:S:1:pos:R:3:initial_magmoms:R:1:castep_labels:S:1:forces:R:3 n_minim_iter=10 energy=-64.323203267478 stress="0.0033250792320330407 -0.0 0.0 -0.0 0.0030154499235310584 -0.0 0.0 -0.0 0.0026002990147700514" free_energy=-64.323203267478 pbc="T T T"
P        3.82760379       1.55321337       5.20422594       0.00000000 NULL      -0.00987900      -0.02993500      -0.05981000
P        1.30444394       1.55321337       1.72698635       0.00000000 NULL       0.00987900      -0.02993500       0.05981000
P        1.26157993       1.55321337       5.19259249       0.00000000 NULL      -0.00987900      -0.02993600       0.05981000
P        3.87046780       1.55321337       1.73861980       0.00000000 NULL       0.00987900      -0.02993600      -0.05981000
P        3.71393094       2.99950843       3.42940389       0.00000000 NULL      -0.00004700       0.11353800       0.04025300
P        1.41811679       2.99950843       3.50180839       0.00000000 NULL       0.00004700       0.11353800      -0.04025300
P        1.14790708       2.99950843       6.96741454       0.00000000 NULL      -0.00004900       0.11353700      -0.04025200
P        3.98414065       2.99950843      -0.03620225       0.00000000 NULL       0.00004900       0.11353700       0.04025200
P        3.50148379       5.12773818       6.44019846       0.00000000 NULL      -0.02048500      -0.08360200       0.07638400
P        1.63056394       5.12773818       0.49101383       0.00000000 NULL       0.02048500      -0.08360200      -0.07638400
P        0.93545993       5.12773818       3.95661997       0.00000000 NULL      -0.02048900      -0.08360200      -0.07638600
P        4.19658780       5.12773818       2.97459232       0.00000000 NULL       0.02048900      -0.08360200       0.07638600
12
Lattice="5.1248658380227985 0.0 0.0 0.0 6.6139155078403 0.0 0.0 0.0 6.919037708326756" Properties=species:S:1:pos:R:3:initial_magmoms:R:1:castep_labels:S:1:forces:R:3 n_minim_iter=11 energy=-64.325299650045 stress="0.002235380891212779 0.0 0.0 0.0 0.0025405524894657086 0.0 0.0 0.0 0.0016880590195941384" free_energy=-64.325299650045 pbc="T T T"
P        3.82477494       1.55525220       5.19129010       0.00000000 NULL      -0.01525600      -0.03402100      -0.00215700
P        1.30009089       1.55525220       1.72774760       0.00000000 NULL       0.01525600      -0.03402100       0.00215700
P        1.26234203       1.55525220       5.18726646       0.00000000 NULL      -0.01525600      -0.03402100       0.00215800
P        3.86252381       1.55525220       1.73177125       0.00000000 NULL       0.01525600      -0.03402100      -0.00215800
P        3.70874088       3.00458675       3.42687211       0.00000000 NULL       0.01868500       0.09296900      -0.01387900
P        1.41612495       3.00458675       3.49216560       0.00000000 NULL      -0.01868500       0.09296900       0.01387900
P        1.14630796       3.00458675       6.95168445       0.00000000 NULL       0.01868400       0.09296800       0.01387800
P        3.97855787       3.00458675      -0.03264674       0.00000000 NULL      -0.01868400       0.09296800      -0.01387800
P        3.50260004       5.13061707       6.42963631       0.00000000 NULL      -0.08565000      -0.05894700       0.10638100
P        1.62226580       5.13061707       0.48940140       0.00000000 NULL       0.08565000      -0.05894700      -0.10638100
P        0.94016712       5.13061707       3.94892025       0.00000000 NULL      -0.08565100      -0.05894700      -0.10638100
P        4.18469872       5.13061707       2.97011745       0.00000000 NULL       0.08565100      -0.05894700       0.10638100
12
Lattice="5.123317803653055 0.0 0.0 0.0 6.609486165608871 0.0 0.0 0.0 6.9176622757435045" Properties=species:S:1:pos:R:3:initial_magmoms:R:1:castep_labels:S:1:forces:R:3 n_minim_iter=12 energy=-64.330036683689 stress="-0.0009612407849800853 -0.0 0.0 -0.0 0.0007162027201497043 -0.0 0.0 -0.0 0.0014430351403242805" free_energy=-64.330036683689 pbc="T T T"
P        3.81999303       1.55540867       5.18701027       0.00000000 NULL       0.00031800      -0.03371000       0.00804100
P        1.30332478       1.55540867       1.73065201       0.00000000 NULL      -0.00031800      -0.03371000      -0.00804100
P        1.25833413       1.55540867       5.18948315       0.00000000 NULL       0.00031800      -0.03371100      -0.00804200
P        3.86498368       1.55540867       1.72817913       0.00000000 NULL      -0.00031800      -0.03371100       0.00804200
P        3.70143398       3.00585574       3.42140896       0.00000000 NULL       0.05586200       0.02419500       0.03153000
P        1.42188382       3.00585574       3.49625332       0.00000000 NULL      -0.05586200       0.02419500      -0.03153000
P        1.13977508       3.00585574       6.95508445       0.00000000 NULL       0.05586100       0.02419500      -0.03152900
P        3.98354272       3.00585574      -0.03742218       0.00000000 NULL      -0.05586100       0.02419500       0.03152900
P        3.50669950       5.12270197       6.44815964       0.00000000 NULL      -0.02602400       0.00951500       0.03207400
P        1.61661831       5.12270197       0.46950264       0.00000000 NULL       0.02602400       0.00951500      -0.03207400
P        0.94504060       5.12270197       3.92833378       0.00000000 NULL      -0.02602700       0.00951500      -0.03207500
P        4.17827721       5.12270197       2.98932850       0.00000000 NULL       0.02602700       0.00951500       0.03207500
12
Lattice="5.116070802161624 0.0 0.0 0.0 6.58408962909289 0.0 0.0 0.0 6.906649148182495" Properties=species:S:1:pos:R:3:initial_magmoms:R:1:castep_labels:S:1:forces:R:3 n_minim_iter=13 energy=-64.333371616275 stress="-0.0012521050798233373 0.0 0.0 0.0 -0.0010633221924019813 -0.0 0.0 -0.0 0.000699425123888958" free_energy=-64.333371616275 pbc="T T T"
P        3.81178958       1.53922062       5.18505362       0.00000000 NULL       0.01273800       0.00354100      -0.00925100
P        1.30428122       1.53922062       1.72159553       0.00000000 NULL      -0.01273800       0.00354100       0.00925100
P        1.25375418       1.53922062       5.17492010       0.00000000 NULL       0.01273800       0.00354100       0.00925100
P        3.86231662       1.53922062       1.73172905       0.00000000 NULL      -0.01273800       0.00354100      -0.00925100
P        3.70381436       2.99435889       3.42391151       0.00000000 NULL       0.00059900      -0.01710100       0.00988700
P        1.41225645       2.99435889       3.48273764       0.00000000 NULL      -0.00059900      -0.01710100      -0.00988700
P        1.14577896       2.99435889       6.93606221       0.00000000 NULL       0.00059800      -0.01710100      -0.00988600
P        3.97029185       2.99435889      -0.02941306       0.00000000 NULL      -0.00059800      -0.01710100       0.00988600
P        3.51034583       5.11317661       6.45363488       0.00000000 NULL      -0.01194600       0.01356000       0.01838400
P        1.60572497       5.11317661       0.45301427       0.00000000 NULL       0.01194600       0.01356000      -0.01838400
P        0.95231043       5.11317661       3.90633884       0.00000000 NULL      -0.01194800       0.01356000      -0.01838500
P        4.16376038       5.11317661       3.00031031       0.00000000 NULL       0.01194800       0.01356000       0.01838500
12
Lattice="5.123616359154455 0.0 0.0 0.0 6.58611767638354 0.0 0.0 0.0 6.893704770092476" Properties=species:S:1:pos:R:3:initial_magmoms:R:1:castep_labels:S:1:forces:R:3 n_minim_iter=14 energy=-64.334376676945 stress="0.001059553547269516 -0.0 -0.0 -0.0 -0.0002958823054956215 0.0 -0.0 0.0 0.0005035544568612102" free_energy=-64.334376676945 pbc="T T T"
P        3.82965191       1.53618976       5.17354196       0.00000000 NULL      -0.01338000       0.00302600      -0.00675900
P        1.29396445       1.53618976       1.72016281       0.00000000 NULL       0.01338000       0.00302600       0.00675900
P        1.26784373       1.53618976       5.16701519       0.00000000 NULL      -0.01338000       0.00302600       0.00675900
P        3.85577263       1.53618976       1.72668958       0.00000000 NULL       0.01338000       0.00302600      -0.00675900
P        3.70838024       2.99377577       3.41789033       0.00000000 NULL       0.00132300      -0.00037400       0.00683100
P        1.41523611       2.99377577       3.47581444       0.00000000 NULL      -0.00132300      -0.00037400      -0.00683100
P        1.14657206       2.99377577       6.92266682       0.00000000 NULL       0.00132500      -0.00037300      -0.00683300
P        3.97704429       2.99377577      -0.02896205       0.00000000 NULL      -0.00132500      -0.00037300       0.00683300
P        3.52416193       5.11976199       6.46123781       0.00000000 NULL      -0.03070000      -0.00265300       0.01271700
P        1.59945443       5.11976199       0.43246696       0.00000000 NULL       0.03070000      -0.00265300      -0.01271700
P        0.96235375       5.11976199       3.87931935       0.00000000 NULL      -0.03069600      -0.00265200      -0.01271600
P        4.16126261       5.11976199       3.01438542       0.00000000 NULL       0.03069600      -0.00265200       0.01271600
12
Lattice="5.122212188893108 0.0 0.0 0.0 6.598413034881271 0.0 0.0 0.0 6.885665183972269" Properties=species:S:1:pos:R:3:initial_magmoms:R:1:castep_labels:S:1:forces:R:3 n_minim_iter=15 energy=-64.334757248149 stress="0.00014716944158497914 -0.0 -0.0 -0.0 0.00024475244942132583 -0.0 -0.0 -0.0 -0.0001458803661842348" free_energy=-64.334757248149 pbc="T T T"
P        3.82150226       1.54136673       5.16829802       0.00000000 NULL       0.00319000      -0.00333600       0.00004900
P        1.30070993       1.54136673       1.71736717       0.00000000 NULL      -0.00319000      -0.00333600      -0.00004900
P        1.26039617       1.54136673       5.16019976       0.00000000 NULL       0.00319000      -0.00333600      -0.00005000
P        3.86181602       1.54136673       1.72546543       0.00000000 NULL      -0.00319000      -0.00333600       0.00005000
P        3.70810547       2.99980375       3.41569565       0.00000000 NULL      -0.00202000       0.00633700      -0.00139900
P        1.41410672       2.99980375       3.46996953       0.00000000 NULL       0.00202000       0.00633700       0.00139900
P        1.14699937       2.99980375       6.91280213       0.00000000 NULL      -0.00201800       0.00633800       0.00140000
P        3.97521282       2.99980375      -0.02713694       0.00000000 NULL       0.00201800       0.00633800      -0.00140000
P        3.52107153       5.12657172       6.45272366       0.00000000 NULL       0.00264200      -0.00300200      -0.00033000
P        1.60114066       5.12657172       0.43294152       0.00000000 NULL      -0.00264200      -0.00300200       0.00033000
P        0.95996543       5.12657172       3.87577412       0.00000000 NULL       0.00264400      -0.00300200       0.00033100
P        4.16224676       5.12657172       3.00989107       0.00000000 NULL      -0.00264400      -0.00300200      -0.00033100
