12
Lattice="4.275909999999998 -1.713089037612731e-31 -7.159007687582552e-16 -1.2371900865759889e-31 7.577779999999998 -1.9066225062754906e-31 -1.2549462371867786 -1.5252752920080125e-31 8.060401934263002" Properties=species:S:1:pos:R:3:initial_magmoms:R:1:castep_labels:S:1 n_minim_iter=1 pbc="T T T"
P        1.27337591       1.78954731       2.98314428       0.00000000 NULL
P        3.41133091       5.78823269       2.98314428       0.00000000 NULL
P        1.50040705       6.59644915       6.60394292       0.00000000 NULL
P       -0.63754795       0.98133085       6.60394292       0.00000000 NULL
P        1.44595268       6.17583841       3.17314568       0.00000000 NULL
P        3.58390768       1.40194159       3.17314568       0.00000000 NULL
P        2.11932590       4.03720021       2.89264773       0.00000000 NULL
P       -0.01862910       3.54057979       2.89264773       0.00000000 NULL
P        4.12282269       6.35608728       0.01121283       0.00000000 NULL
P        1.98486769       1.22169272       0.01121283       0.00000000 NULL
P        2.65272539       2.49451576       1.71654320       0.00000000 NULL
P        0.51477039       5.08326424       1.71654320       0.00000000 NULL
12
Lattice="4.29522706191373 -2.790044348557036e-20 -0.00012311149741648975 -4.9445246190044676e-20 7.594862035816186 3.7195894878199294e-18 -1.2608477183484605 3.964675330761905e-18 8.077896176495852" Properties=species:S:1:pos:R:3:initial_magmoms:R:1:castep_labels:S:1 n_minim_iter=2 pbc="T T T"
P        1.27906408       1.79341990       2.98978484       0.00000000 NULL
P        3.42667761       5.80144214       2.98972329       0.00000000 NULL
P        1.50688200       6.61142136       6.61812220       0.00000000 NULL
P       -0.64073153       0.98344067       6.61818375       0.00000000 NULL
P        1.45231207       6.19017608       3.18021605       0.00000000 NULL
P        3.59992560       1.40468595       3.18015449       0.00000000 NULL
P        2.12872262       4.04649533       2.89918055       0.00000000 NULL
P       -0.01889091       3.54836670       2.89924210       0.00000000 NULL
P        4.14155011       6.37050978       0.01111407       0.00000000 NULL
P        1.99393658       1.22435226       0.01117562       0.00000000 NULL
P        2.66482553       2.50007951       1.71948625       0.00000000 NULL
P        0.51721200       5.09478252       1.71954781       0.00000000 NULL
12
Lattice="4.686531974491962 -9.469344167099102e-19 -0.004168266412651332 -1.6796153431675031e-18 7.930437438868895 7.669097852551954e-17 -1.3833180701883965 8.185387061368541e-17 8.420850433409484" Properties=species:S:1:pos:R:3:initial_magmoms:R:1:castep_labels:S:1 n_minim_iter=3 pbc="T T T"
P        1.39314259       1.86939474       3.11947559       0.00000000 NULL
P        3.73640858       6.06104270       3.11739146       0.00000000 NULL
P        1.63561811       6.90574014       6.89523177       0.00000000 NULL
P       -0.70764787       1.02469730       6.89731590       0.00000000 NULL
P        1.57993982       6.47212655       3.31823889       0.00000000 NULL
P        3.92320580       1.45831089       3.31615475       0.00000000 NULL
P        2.31789316       4.22930152       3.02659527       0.00000000 NULL
P       -0.02537283       3.70113592       3.02867941       0.00000000 NULL
P        4.52091048       6.65402652       0.00743268       0.00000000 NULL
P        2.17764449       1.27641092       0.00951681       0.00000000 NULL
P        2.90957777       2.60925615       1.77547481       0.00000000 NULL
P        0.56631178       5.32118129       1.77755894       0.00000000 NULL
12
Lattice="4.861154774360792 -9.543139148775997e-19 -0.02580185063986461 -2.1035455338935195e-18 8.02869881029027 7.756896142107379e-17 -1.4753493827680524 8.28479674259341e-17 8.52468602655167" Properties=species:S:1:pos:R:3:initial_magmoms:R:1:castep_labels:S:1 n_minim_iter=4 pbc="T T T"
P        1.42952785       1.89123278       3.15182148       0.00000000 NULL
P        3.86010523       6.13746603       3.13892055       0.00000000 NULL
P        1.66396398       6.99348461       6.97024811       0.00000000 NULL
P       -0.76661340       1.03521420       6.98314904       0.00000000 NULL
P        1.62246340       6.55633695       3.35120659       0.00000000 NULL
P        4.05304079       1.47236187       3.33830567       0.00000000 NULL
P        2.38843782       4.28500585       3.05622823       0.00000000 NULL
P       -0.04213957       3.74369296       3.06912915       0.00000000 NULL
P        4.68801999       6.74000634      -0.01668983       0.00000000 NULL
P        2.25744260       1.28869247      -0.00378890       0.00000000 NULL
P        3.01231732       2.64023656       1.77349185       0.00000000 NULL
P        0.58173993       5.38846225       1.78639277       0.00000000 NULL
12
Lattice="4.999564308138258 -9.363180168306666e-19 -0.058858542442683716 -2.6809269117063234e-18 8.067106135769146 7.785653202216488e-17 -1.5782857743554775 8.321688045329203e-17 8.566769262766584" Properties=species:S:1:pos:R:3:initial_magmoms:R:1:castep_labels:S:1 n_minim_iter=5 pbc="T T T"
P        1.44692692       1.89938535       3.15660126       0.00000000 NULL
P        3.94670907       6.16772079       3.12717199       0.00000000 NULL
P        1.66336722       7.02922219       6.99118419       0.00000000 NULL
P       -0.83641493       1.03788395       7.02061346       0.00000000 NULL
P        1.64420607       6.59137385       3.35409608       0.00000000 NULL
P        4.14398822       1.47573229       3.32466680       0.00000000 NULL
P        2.43304239       4.31022092       3.05874514       0.00000000 NULL
P       -0.06673976       3.75688522       3.08817441       0.00000000 NULL
P        4.81836556       6.77831700      -0.05505854       0.00000000 NULL
P        2.31858341       1.28878913      -0.02562927       0.00000000 NULL
P        3.08896878       2.65126445       1.74917427       0.00000000 NULL
P        0.58918663       5.41584168       1.77860354       0.00000000 NULL
12
Lattice="5.103018618972844 -8.582475184260027e-19 -0.10164958247146308 -3.3356428876956908e-18 8.003433954944759 7.745249428619043e-17 -1.6893130363698154 8.252093058376688e-17 8.534961204531461" Properties=species:S:1:pos:R:3:initial_magmoms:R:1:castep_labels:S:1 n_minim_iter=6 pbc="T T T"
P        1.44699484       1.88453427       3.12935591       0.00000000 NULL
P        3.99850415       6.11889968       3.07853111       0.00000000 NULL
P        1.63630494       6.97582319       6.94907617       0.00000000 NULL
P       -0.91520437       1.02761077       6.99990096       0.00000000 NULL
P        1.64665036       6.54212377       3.32269630       0.00000000 NULL
P        4.19815967       1.46131018       3.27187151       0.00000000 NULL
P        2.45361182       4.28256406       3.03058910       0.00000000 NULL
P       -0.09789749       3.72086989       3.08141389       0.00000000 NULL
P        4.91399921       6.73396966      -0.10614478       0.00000000 NULL
P        2.36248990       1.26946429      -0.05531999       0.00000000 NULL
P        3.14068346       2.62895476       1.70225735       0.00000000 NULL
P        0.58917415       5.37447920       1.75308214       0.00000000 NULL
12
Lattice="5.133471185944824 -1.1379887890497399e-18 -0.12501055295648067 -3.584259056430219e-18 7.862392104190819 1.0818738228108843e-16 -1.7422877589476646 1.1443466797283355e-16 8.476416697648814" Properties=species:S:1:pos:R:3:initial_magmoms:R:1:castep_labels:S:1 n_minim_iter=7 pbc="T T T"
P        1.43907688       1.85216025       3.09903691       0.00000000 NULL
P        4.00581248       6.01023186       3.03653163       0.00000000 NULL
P        1.61170262       6.85499024       6.89588180       0.00000000 NULL
P       -0.95503297       1.00740187       6.95838708       0.00000000 NULL
P        1.63898691       6.42877059       3.28952943       0.00000000 NULL
P        4.20572251       1.43362152       3.22702416       0.00000000 NULL
P        2.45152546       4.21329618       3.00376597       0.00000000 NULL
P       -0.11521013       3.64909592       3.06627124       0.00000000 NULL
P        4.94161042       6.62509999      -0.13805644       0.00000000 NULL
P        2.37487483       1.23729211      -0.07555116       0.00000000 NULL
P        3.15378594       2.58223705       1.66499850       0.00000000 NULL
P        0.58705034       5.28015506       1.72750378       0.00000000 NULL
12
Lattice="5.153779558894326 -1.2530235207418417e-18 -0.12359728583693105 -3.4923079699485274e-18 7.816839165472456 1.1815773266449904e-16 -1.7455839965186886 1.2467146499462692e-16 8.46418635148446" Properties=species:S:1:pos:R:3:initial_magmoms:R:1:castep_labels:S:1 n_minim_iter=8 pbc="T T T"
P        1.44601766       1.84155882       3.09533792       0.00000000 NULL
P        4.02290744       5.97528034       3.03353928       0.00000000 NULL
P        1.62045413       6.81623633       6.88911101       0.00000000 NULL
P       -0.95643565       1.00060284       6.95090965       0.00000000 NULL
P        1.64676262       6.39238072       3.28577108       0.00000000 NULL
P        4.22365240       1.42445844       3.22397243       0.00000000 NULL
P        2.46208035       4.19076906       3.00288190       0.00000000 NULL
P       -0.11480943       3.62607010       3.06468054       0.00000000 NULL
P        4.96143080       6.58999166      -0.13946584       0.00000000 NULL
P        2.38454102       1.22684750      -0.07766720       0.00000000 NULL
P        3.16797495       2.56733170       1.66037685       0.00000000 NULL
P        0.59108517       5.24950747       1.72217549       0.00000000 NULL
12
Lattice="5.234697675474588 -1.7868769922506867e-18 -0.11391292898448155 -2.9824844103640564e-18 7.60685698202429 1.639799675673586e-16 -1.7510771142917612 1.7179225033248997e-16 8.401615830200907" Properties=species:S:1:pos:R:3:initial_magmoms:R:1:castep_labels:S:1 n_minim_iter=9 pbc="T T T"
P        1.47666073       1.79260373       3.07713639       0.00000000 NULL
P        4.09400957       5.81425325       3.02017993       0.00000000 NULL
P        1.66098982       6.63765277       6.85427263       0.00000000 NULL
P       -0.95635902       0.96920422       6.91122909       0.00000000 NULL
P        1.68049306       6.22429923       3.26731628       0.00000000 NULL
P        4.29784190       1.38255775       3.21035981       0.00000000 NULL
P        2.50663248       4.08618379       2.99786867       0.00000000 NULL
P       -0.11071636       3.52067319       3.05482514       0.00000000 NULL
P        5.04081069       6.42727956      -0.14246218       0.00000000 NULL
P        2.42346186       1.17957742      -0.08550572       0.00000000 NULL
P        3.22668182       2.49853763       1.64079200       0.00000000 NULL
P        0.60933298       5.10831935       1.69774846       0.00000000 NULL
12
Lattice="5.30647183323091 -1.603136379906992e-18 -0.08900206017334647 -1.848205473375657e-18 7.402759804532863 1.626480349975775e-16 -1.7251834668703026 1.671832989655707e-16 8.324133958472384" Properties=species:S:1:pos:R:3:initial_magmoms:R:1:castep_labels:S:1 n_minim_iter=10 pbc="T T T"
P        1.51623634       1.74479174       3.05947229       0.00000000 NULL
P        4.16947226       5.65796807       3.01497126       0.00000000 NULL
P        1.72047427       6.46537080       6.81651095       0.00000000 NULL
P       -0.93276164       0.93738901       6.86101198       0.00000000 NULL
P        1.72128276       6.06116579       3.24995898       0.00000000 NULL
P        4.37451868       1.34159402       3.20545795       0.00000000 NULL
P        2.55708310       3.98357749       2.99676702       0.00000000 NULL
P       -0.09615281       3.41918231       3.04126805       0.00000000 NULL
P        5.11237885       6.26961897      -0.13142516       0.00000000 NULL
P        2.45914294       1.13314084      -0.08692413       0.00000000 NULL
P        3.28620844       2.43118613       1.62873457       0.00000000 NULL
P        0.63297252       4.97157367       1.67323560       0.00000000 NULL
12
Lattice="5.4090642365071755 -1.8555319277322364e-18 -0.051260765822185396 -3.3367831926234905e-19 7.272856305593096 1.9040939402578105e-16 -1.6841484470653494 1.966917249252225e-16 8.256143183167287" Properties=species:S:1:pos:R:3:initial_magmoms:R:1:castep_labels:S:1 n_minim_iter=11 pbc="T T T"
P        1.57531012       1.71444347       3.05074682       0.00000000 NULL
P        4.27984223       5.55841283       3.02511644       0.00000000 NULL
P        1.80994478       6.35894082       6.79522399       0.00000000 NULL
P       -0.89458734       0.91391549       6.82085437       0.00000000 NULL
P        1.77980170       5.95965582       3.24228346       0.00000000 NULL
P        4.48433382       1.31320049       3.21665308       0.00000000 NULL
P        2.63238636       3.91970288       3.00815210       0.00000000 NULL
P       -0.07214576       3.35315342       3.03378248       0.00000000 NULL
P        5.21343183       6.17564847      -0.10967702       0.00000000 NULL
P        2.50889971       1.09720784      -0.08404664       0.00000000 NULL
P        3.37085943       2.38715279       1.62632172       0.00000000 NULL
P        0.66632731       4.88570352       1.65195210       0.00000000 NULL
12
Lattice="5.461252256565138 8.115640081442572e-18 -0.009945742864582895 1.8207256500648703e-17 7.1289669336895365 1.6099334792625795e-16 -1.6215833950498448 1.5965807406503381e-16 8.118155168480195" Properties=species:S:1:pos:R:3:initial_magmoms:R:1:castep_labels:S:1 n_minim_iter=12 pbc="T T T"
P        1.62368678       1.68244156       3.01742908       0.00000000 NULL
P        4.35431291       5.44652537       3.01245621       0.00000000 NULL
P        1.88829048       6.24317982       6.72414845       0.00000000 NULL
P       -0.84233565       0.88578712       6.72912132       0.00000000 NULL
P        1.81885199       5.84750510       3.20719871       0.00000000 NULL
P        4.54947812       1.28146184       3.20222584       0.00000000 NULL
P        2.68718982       3.84816555       3.00054629       0.00000000 NULL
P       -0.04343630       3.28080139       3.00551916       0.00000000 NULL
P        5.26315823       6.07567378      -0.09053615       0.00000000 NULL
P        2.53253210       1.05329316      -0.08556328       0.00000000 NULL
P        3.42855887       2.33658592       1.60958475       0.00000000 NULL
P        0.69793275       4.79238102       1.61455762       0.00000000 NULL
12
Lattice="5.536788326382254 8.04345261350424e-18 0.02894318780315026 1.9797459146777524e-17 7.15203549930879 1.6112270731832654e-16 -1.570444174302276 1.6003036803850593e-16 8.112494736271984" Properties=species:S:1:pos:R:3:initial_magmoms:R:1:castep_labels:S:1 n_minim_iter=13 pbc="T T T"
P        1.67650475       1.68914104       3.03198696       0.00000000 NULL
P        4.44489892       5.46289446       3.04645856       0.00000000 NULL
P        1.97233915       6.26866001       6.75128516       0.00000000 NULL
P       -0.79605501       0.88337549       6.73681356       0.00000000 NULL
P        1.86606413       5.87052433       3.22289038       0.00000000 NULL
P        4.63445830       1.28151117       3.23736197       0.00000000 NULL
P        2.75343972       3.86267014       3.03209094       0.00000000 NULL
P       -0.01495444       3.28936536       3.01761935       0.00000000 NULL
P        5.33516315       6.10709003      -0.06384046       0.00000000 NULL
P        2.56676899       1.04494547      -0.07831205       0.00000000 NULL
P        3.49597633       2.34197080       1.62563960       0.00000000 NULL
P        0.72758217       4.81006470       1.61116801       0.00000000 NULL
12
Lattice="5.525891354423289 7.877373951053395e-18 0.04562687125887053 2.0238762777079718e-17 7.107110352783891 1.6027766249889413e-16 -1.5357960389688026 1.5892673635178078e-16 8.067117331967093" Properties=species:S:1:pos:R:3:initial_magmoms:R:1:castep_labels:S:1 n_minim_iter=14 pbc="T T T"
P        1.68650024       1.67975285       3.02207307       0.00000000 NULL
P        4.44944592       5.42735750       3.04488651       0.00000000 NULL
P        1.99433739       6.23221746       6.72867171       0.00000000 NULL
P       -0.76860829       0.87489289       6.70585828       0.00000000 NULL
P        1.87072416       5.83474397       3.21165722       0.00000000 NULL
P        4.63366984       1.27236638       3.23447065       0.00000000 NULL
P        2.76136427       3.83955654       3.03037571       0.00000000 NULL
P       -0.00158140       3.26755381       3.00756228       0.00000000 NULL
P        5.32297030       6.07501946      -0.05321140       0.00000000 NULL
P        2.56002462       1.03209089      -0.07602484       0.00000000 NULL
P        3.49798436       2.32594701       1.62436780       0.00000000 NULL
P        0.73503869       4.78116334       1.60155437       0.00000000 NULL
12
Lattice="5.537668913070125 7.800016281034676e-18 0.06727960942803565 2.1009580901826545e-17 7.095215913055324 1.5985201430455594e-16 -1.4984356713011622 1.5854609450060568e-16 8.040386346012811" Properties=species:S:1:pos:R:3:initial_magmoms:R:1:castep_labels:S:1 n_minim_iter=15 pbc="T T T"
P        1.70689002       1.67793497       3.02124003       0.00000000 NULL
P        4.47572447       5.41728094       3.05487983       0.00000000 NULL
P        2.03178233       6.22444530       6.72380850       0.00000000 NULL
P       -0.73705213       0.87077061       6.69016870       0.00000000 NULL
P        1.88663373       5.82634337       3.21018690       0.00000000 NULL
P        4.65546819       1.26887254       3.24382670       0.00000000 NULL
P        2.78401692       3.83406113       3.03845321       0.00000000 NULL
P        0.01518247       3.26115478       3.00481341       0.00000000 NULL
P        5.33269022       6.07060687      -0.03736991       0.00000000 NULL
P        2.56385576       1.02460904      -0.07100971       0.00000000 NULL
P        3.51600401       2.32078508       1.63008942       0.00000000 NULL
P        0.74716955       4.77443084       1.59644961       0.00000000 NULL
12
Lattice="5.5638585585200735 7.6261627554837e-18 0.12320622319920753 2.3013387740073534e-17 7.068920224489047 1.5876565569009018e-16 -1.4006963856737138 1.5764669351145136e-16 7.972290302365347" Properties=species:S:1:pos:R:3:initial_magmoms:R:1:castep_labels:S:1 n_minim_iter=16 pbc="T T T"
P        1.75817340       1.67414198       3.01945149       0.00000000 NULL
P        4.54010267       5.39477824       3.08105461       0.00000000 NULL
P        2.12783481       6.20757211       6.71076989       0.00000000 NULL
P       -0.65409446       0.86134812       6.64916678       0.00000000 NULL
P        1.92679212       5.80770258       3.20636936       0.00000000 NULL
P        4.70872140       1.26121765       3.26797247       0.00000000 NULL
P        2.84063131       3.82202176       3.05858380       0.00000000 NULL
P        0.05870203       3.24689847       2.99698069       0.00000000 NULL
P        5.35306166       6.06143005       0.00501115       0.00000000 NULL
P        2.57113238       1.00749018      -0.05659196       0.00000000 NULL
P        3.55917939       2.30904871       1.64631263       0.00000000 NULL
P        0.77725012       4.75987151       1.58470952       0.00000000 NULL
12
Lattice="5.591069047683025 2.3546752824788688e-17 0.18911343732377844 5.19258195599726e-17 7.05112474126574 1.4538736488939905e-16 -1.2844425507649984 1.3896415868560911e-16 7.8989477737117735" Properties=species:S:1:pos:R:3:initial_magmoms:R:1:castep_labels:S:1 n_minim_iter=17 pbc="T T T"
P        1.81731829       1.67249347       3.02002487       0.00000000 NULL
P        4.61285282       5.37863127       3.11458159       0.00000000 NULL
P        2.24150204       6.19793665       6.69867885       0.00000000 NULL
P       -0.55403248       0.85318809       6.60412213       0.00000000 NULL
P        1.97377373       5.79540984       3.20380785       0.00000000 NULL
P        4.76930826       1.25571490       3.29836456       0.00000000 NULL
P        2.90579233       3.81463097       3.08301070       0.00000000 NULL
P        0.11025780       3.23649377       2.98845399       0.00000000 NULL
P        5.37207443       6.05883803       0.05766452       0.00000000 NULL
P        2.57653991       0.99228671      -0.03689220       0.00000000 NULL
P        3.60656731       2.29975207       1.66901646       0.00000000 NULL
P        0.81103279       4.75137267       1.57445974       0.00000000 NULL
12
Lattice="5.615706751385037 2.3202593060295578e-17 0.2600472868272109 5.4242559969609506e-17 7.032800157762271 1.440599553176102e-16 -1.1579580494101007 1.376134020311024e-16 7.814088585965802" Properties=species:S:1:pos:R:3:initial_magmoms:R:1:castep_labels:S:1 n_minim_iter=18 pbc="T T T"
P        1.87970332       1.67080542       3.01887122       0.00000000 NULL
P        4.68755669       5.36199474       3.14889486       0.00000000 NULL
P        2.36407976       6.18755716       6.67941125       0.00000000 NULL
P       -0.44377362       0.84524300       6.54938761       0.00000000 NULL
P        2.02276820       5.78187123       3.19773664       0.00000000 NULL
P        4.83062158       1.25092893       3.32776028       0.00000000 NULL
P        2.97405579       3.80730695       3.10637123       0.00000000 NULL
P        0.16620242       3.22549321       2.97634758       0.00000000 NULL
P        5.38598616       6.05495723       0.11574754       0.00000000 NULL
P        2.57813279       0.97784292      -0.01427611       0.00000000 NULL
P        3.65433156       2.28995548       1.69353522       0.00000000 NULL
P        0.84647819       4.74284468       1.56351158       0.00000000 NULL
12
Lattice="5.624167069098289 2.312081169253929e-17 0.27746255667534514 5.4823935498552256e-17 7.030518441710884 1.4371489858563543e-16 -1.1276120339677815 1.3732123273446418e-16 7.792400748721811" Properties=species:S:1:pos:R:3:initial_magmoms:R:1:castep_labels:S:1 n_minim_iter=19 pbc="T T T"
P        1.89578849       1.67090675       3.01844448       0.00000000 NULL
P        4.70787202       5.35961170       3.15717576       0.00000000 NULL
P        2.39541566       6.18684282       6.67382403       0.00000000 NULL
P       -0.41666787       0.84367562       6.53509275       0.00000000 NULL
P        2.03541538       5.78019273       3.19569248       0.00000000 NULL
P        4.84749891       1.25032571       3.33442376       0.00000000 NULL
P        2.99210373       3.80684619       3.11180635       0.00000000 NULL
P        0.18002020       3.22367226       2.97307508       0.00000000 NULL
P        5.39119289       6.05565171       0.13014284       0.00000000 NULL
P        2.57910935       0.97486673      -0.00858843       0.00000000 NULL
P        3.66774647       2.28822246       1.69943305       0.00000000 NULL
P        0.85566294       4.74229598       1.56070177       0.00000000 NULL
12
Lattice="5.661568755651243 2.2708654190508396e-17 0.3534803135585184 5.730965326360618e-17 7.017148243419676 1.421759121535833e-16 -0.9952901261597616 1.3597619912577637e-16 7.696414540020202" Properties=species:S:1:pos:R:3:initial_magmoms:R:1:castep_labels:S:1 n_minim_iter=20 pbc="T T T"
P        1.96623253       1.67061519       3.01634743       0.00000000 NULL
P        4.79701691       5.34653305       3.19308758       0.00000000 NULL
P        2.53302288       6.18066237       6.64830245       0.00000000 NULL
P       -0.29776149       0.83648587       6.47156230       0.00000000 NULL
P        2.09030611       5.76982422       3.18582715       0.00000000 NULL
P        4.92109049       1.24732402       3.36256731       0.00000000 NULL
P        3.07159237       3.80319489       3.13512477       0.00000000 NULL
P        0.24080800       3.21395335       2.95838461       0.00000000 NULL
P        5.41344482       6.05561364       0.19292722       0.00000000 NULL
P        2.58266044       0.96153460       0.01618706       0.00000000 NULL
P        3.72677383       2.27949435       1.72510108       0.00000000 NULL
P        0.89598945       4.73765389       1.54836092       0.00000000 NULL
12
Lattice="5.784135143594611 2.57527369012276e-17 0.5339799964654375 6.99639491473374e-17 6.96810260065459 1.343282985135098e-16 -0.691007349889521 1.271227858855148e-16 7.467366814097385" Properties=species:S:1:pos:R:3:initial_magmoms:R:1:castep_labels:S:1 n_minim_iter=21 pbc="T T T"
P        2.14468628       1.66696479       3.01398466       0.00000000 NULL
P        5.03675385       5.30113781       3.28097466       0.00000000 NULL
P        2.87878881       6.15045794       6.58808525       0.00000000 NULL
P       -0.01327876       0.81764466       6.32109525       0.00000000 NULL
P        2.22493513       5.72831224       3.15733807       0.00000000 NULL
P        5.11700270       1.23979037       3.42432807       0.00000000 NULL
P        3.28191316       3.78814006       3.19313298       0.00000000 NULL
P        0.38984558       3.17996254       2.92614298       0.00000000 NULL
P        5.48760195       6.04041873       0.33944119       0.00000000 NULL
P        2.59553438       0.92768387       0.07245119       0.00000000 NULL
P        3.89306123       2.25219678       1.78559217       0.00000000 NULL
P        1.00099366       4.71590582       1.51860217       0.00000000 NULL
12
Lattice="5.990007404030893 2.4766867240461363e-17 0.6473383763900543 7.57359631643754e-17 6.821231253439501 1.261289236555896e-16 -0.5377404461816191 1.174499501678464e-16 7.267004024213115" Properties=species:S:1:pos:R:3:initial_magmoms:R:1:castep_labels:S:1 n_minim_iter=22 pbc="T T T"
P        2.29792021       1.64284573       3.00052938       0.00000000 NULL
P        5.29292391       5.17838552       3.32419856       0.00000000 NULL
P        3.16565278       6.02978575       6.51498157       0.00000000 NULL
P        0.17064908       0.79144550       6.19131238       0.00000000 NULL
P        2.32353346       5.59656566       3.10245777       0.00000000 NULL
P        5.31853716       1.22466560       3.42612696       0.00000000 NULL
P        3.49245199       3.72813082       3.22495694       0.00000000 NULL
P        0.49744829       3.09310043       2.90128775       0.00000000 NULL
P        5.61500793       5.93536545       0.41650043       0.00000000 NULL
P        2.62000423       0.88586581       0.09283124       0.00000000 NULL
P        4.10862626       2.19453565       1.80552635       0.00000000 NULL
P        1.11362256       4.62669560       1.48185717       0.00000000 NULL
12
Lattice="6.086449176339537 -5.078048978700698e-17 0.9431957922441853 5.95784683454793e-17 6.596791883025909 -4.838051752282853e-16 -0.008332566279952958 -5.356994258391595e-16 6.971639630039722" Properties=species:S:1:pos:R:3:initial_magmoms:R:1:castep_labels:S:1 n_minim_iter=23 pbc="T T T"
P        2.55857895       1.60632565       3.02756988       0.00000000 NULL
P        5.60180354       4.99046623       3.49916777       0.00000000 NULL
P        3.70612850       5.83493785       6.46912944       0.00000000 NULL
P        0.66290391       0.76185403       5.99753154       0.00000000 NULL
P        2.52014173       5.39693017       3.08961484       0.00000000 NULL
P        5.56336631       1.19986171       3.56121273       0.00000000 NULL
P        3.78937103       3.62522932       3.33013396       0.00000000 NULL
P        0.74614644       2.97156257       2.85853606       0.00000000 NULL
P        5.61401466       5.75499087       0.66709056       0.00000000 NULL
P        2.57079007       0.84180101       0.19549267       0.00000000 NULL
P        4.31334919       2.11982627       1.93917716       0.00000000 NULL
P        1.27012460       4.47696562       1.46757927       0.00000000 NULL
12
Lattice="6.261979172409792 -5.574465248640824e-17 0.8980837949582806 6.745800064015902e-17 6.850953085689515 -5.38279654140683e-16 -0.1448886533499649 -6.032225503219189e-16 7.100712286580539" Properties=species:S:1:pos:R:3:initial_magmoms:R:1:castep_labels:S:1 n_minim_iter=24 pbc="T T T"
P        2.57577701       1.66725390       3.05974850       0.00000000 NULL
P        5.70676660       5.18369918       3.50879040       0.00000000 NULL
P        3.70655702       6.05744631       6.55331312       0.00000000 NULL
P        0.57556743       0.79350677       6.10427122       0.00000000 NULL
P        2.53332715       5.60304222       3.11913328       0.00000000 NULL
P        5.66431674       1.24791087       3.56817518       0.00000000 NULL
P        3.84618967       3.76946357       3.35847830       0.00000000 NULL
P        0.71520008       3.08148951       2.90943640       0.00000000 NULL
P        5.76580608       5.97478793       0.61704125       0.00000000 NULL
P        2.63481650       0.87616516       0.16799936       0.00000000 NULL
P        4.42892339       2.20097841       1.92640853       0.00000000 NULL
P        1.29793381       4.64997468       1.47736664       0.00000000 NULL
12
Lattice="6.118877659296889 -4.451232425211887e-17 0.8746670754267765 6.867118388419596e-17 6.72104777345541 -4.871373319810697e-16 -0.14703169798585988 -5.44803226723453e-16 7.024902751961814" Properties=species:S:1:pos:R:3:initial_magmoms:R:1:castep_labels:S:1 n_minim_iter=25 pbc="T T T"
P        2.51553308       1.63692439       3.02166745       0.00000000 NULL
P        5.57497191       5.08412338       3.45900099       0.00000000 NULL
P        3.61859620       5.94341755       6.47608498       0.00000000 NULL
P        0.55915737       0.77763023       6.03875144       0.00000000 NULL
P        2.47212392       5.49458903       3.07902660       0.00000000 NULL
P        5.53156275       1.22645875       3.51636014       0.00000000 NULL
P        3.75582727       3.69928657       3.31459674       0.00000000 NULL
P        0.69638844       3.02176121       2.87726320       0.00000000 NULL
P        5.63061369       5.86225839       0.59633944       0.00000000 NULL
P        2.57117486       0.85878938       0.15900590       0.00000000 NULL
P        4.32979682       2.15985246       1.89629908       0.00000000 NULL
P        1.27035799       4.56119531       1.45896555       0.00000000 NULL
