10
Lattice="5.571669999999999 -2.0602658522560556e-16 1.5529078077794077e-16 0.6332848456216019 6.143827814050946 4.0667207532349646e-16 0.6332848456216014 -0.02383239001017325 6.143781590021931" Properties=species:S:1:pos:R:3:initial_magmoms:R:1:castep_labels:S:1 n_minim_iter=1 pbc="T T T"
P        4.31188588       5.32623590       5.74632254       0.00000000 NULL
P        0.89276603       2.66562071       2.27659547       0.00000000 NULL
P        1.80213018       0.14794162       5.85822968       0.00000000 NULL
P        4.58796518       2.77378162       3.24255584       0.00000000 NULL
P        5.06543162       4.29877502       1.53627593       0.00000000 NULL
P        2.27959662       4.60341919       1.23281122       0.00000000 NULL
P        0.89430652       4.59542358       3.01921708       0.00000000 NULL
P        3.68014152       6.08519846       1.53520999       0.00000000 NULL
P        4.02225082       5.01441203       3.24167174       0.00000000 NULL
P        0.60313097       0.16219834       1.95505821       0.00000000 NULL
10
Lattice="5.586140088411856 -0.0001215586028016103 -0.00012203105627585469 0.6347954972899718 6.162116219647157 -0.0017647003351524012 0.6347954972899712 -0.0256680192281761 6.1620630126115" Properties=species:S:1:pos:R:3:initial_magmoms:R:1:castep_labels:S:1 n_minim_iter=2 pbc="T T T"
P        4.32298410       5.34032553       5.76141500       0.00000000 NULL
P        0.89511855       2.67249278       2.28254619       0.00000000 NULL
P        1.80646957       0.14676566       5.87548301       0.00000000 NULL
P        4.59953962       2.78091659       3.25140886       0.00000000 NULL
P        5.07848987       4.31078416       1.53943013       0.00000000 NULL
P        2.28541982       4.61664957       1.23487046       0.00000000 NULL
P        0.89649451       4.60833668       3.02746363       0.00000000 NULL
P        3.68956456       6.10339609       1.53807090       0.00000000 NULL
P        4.03252181       5.02817571       3.25006295       0.00000000 NULL
P        0.60465627       0.16237049       1.96065699       0.00000000 NULL
10
Lattice="6.102053917646929 -0.0021975418001124424 -0.0022060828349308513 0.691145914021765 6.8214382052250855 -0.06961250554101138 0.6911459140217645 -0.09607287566970445 6.821116850721196" Properties=species:S:1:pos:R:3:initial_magmoms:R:1:castep_labels:S:1 n_minim_iter=3 pbc="T T T"
P        4.72333610       5.84587658       6.30268059       0.00000000 NULL
P        0.98116322       2.91837266       2.49563206       0.00000000 NULL
P        1.96336604       0.10096196       6.49760571       0.00000000 NULL
P        5.01439300       3.03731087       3.57042756       0.00000000 NULL
P        5.54654433       4.74401916       1.65211855       0.00000000 NULL
P        2.49551737       5.09355801       1.30613053       0.00000000 NULL
P        0.97760572       5.07176091       3.32258027       0.00000000 NULL
P        4.02863268       6.76053828       1.63814358       0.00000000 NULL
P        4.40205278       5.52299989       3.55074443       0.00000000 NULL
P        0.65987991       0.16770967       2.16208282       0.00000000 NULL
10
Lattice="6.016030479775261 0.03891727515767247 0.039068532258748304 0.726705273499704 6.853472724833773 -0.07483018832587221 0.7267052734997036 -0.10141478361286753 6.853130889512475" Properties=species:S:1:pos:R:3:initial_magmoms:R:1:castep_labels:S:1 n_minim_iter=4 pbc="T T T"
P        4.73450679       5.89516344       6.35235783       0.00000000 NULL
P        0.99978627       2.93395463       2.51107577       0.00000000 NULL
P        1.98197889       0.10167646       6.53903646       0.00000000 NULL
P        4.98999413       3.08060774       3.61055593       0.00000000 NULL
P        5.51319797       4.79402970       1.69421200       0.00000000 NULL
P        2.50518273       5.13358795       1.31705081       0.00000000 NULL
P        1.01834912       5.09445827       3.33911367       0.00000000 NULL
P        4.02636436       6.81622913       1.66292635       0.00000000 NULL
P        4.40311648       5.56452671       3.58468094       0.00000000 NULL
P        0.66839596       0.16758112       2.16970549       0.00000000 NULL
10
Lattice="5.922953919354993 0.09591629146282443 0.09628908272669907 0.7789783202796473 6.947127982709958 -0.0973055545546373 0.778978320279647 -0.12425327683635823 6.946698259050431" Properties=species:S:1:pos:R:3:initial_magmoms:R:1:castep_labels:S:1 n_minim_iter=5 pbc="T T T"
P        4.77061764       5.99257552       6.45358314       0.00000000 NULL
P        1.03016236       2.97089341       2.54472350       0.00000000 NULL
P        2.01514016       0.08914886       6.64314274       0.00000000 NULL
P        4.97661712       3.15501445       3.68506391       0.00000000 NULL
P        5.49176488       4.89177704       1.75530393       0.00000000 NULL
P        2.53028792       5.22404762       1.32840275       0.00000000 NULL
P        1.07856534       5.15549247       3.37684710       0.00000000 NULL
P        4.04004230       6.94047191       1.69469537       0.00000000 NULL
P        4.42371494       5.65253491       3.64543184       0.00000000 NULL
P        0.68325966       0.16408229       2.19379241       0.00000000 NULL
10
Lattice="5.7300105913117605 0.21333079775931255 0.21415993592246652 0.8865199413454781 7.146990827521717 -0.1916856643606698 0.8865199413454776 -0.21940796021137632 7.146193492314406" Properties=species:S:1:pos:R:3:initial_magmoms:R:1:castep_labels:S:1 n_minim_iter=6 pbc="T T T"
P        4.84529309       6.15638370       6.62860438       0.00000000 NULL
P        1.09376785       3.03421658       2.59771638       0.00000000 NULL
P        2.07865143       0.01583845       6.86720623       0.00000000 NULL
P        4.94365673       3.29055913       3.81849631       0.00000000 NULL
P        5.45021136       5.07705371       1.85690863       0.00000000 NULL
P        2.58520606       5.41373436       1.30819907       0.00000000 NULL
P        1.19949497       5.26179544       3.42588552       0.00000000 NULL
P        4.06450026       7.19531362       1.71318552       0.00000000 NULL
P        4.46767166       5.80560242       3.73449847       0.00000000 NULL
P        0.71614643       0.14149315       2.23571127       0.00000000 NULL
10
Lattice="5.801927003639936 0.20675880440750044 0.20756239965536413 0.887447199874839 7.215760763313013 -0.2971371403447342 0.8874471998748386 -0.32512540679034085 7.214553856157648" Properties=species:S:1:pos:R:3:initial_magmoms:R:1:castep_labels:S:1 n_minim_iter=7 pbc="T T T"
P        4.89331381       6.11435303       6.60617035       0.00000000 NULL
P        1.10490311       3.03370551       2.57744333       0.00000000 NULL
P        2.08110416      -0.08532923       6.93810926       0.00000000 NULL
P        4.98206766       3.27132437       3.80121158       0.00000000 NULL
P        5.51724085       5.07223017       1.80841582       0.00000000 NULL
P        2.61627734       5.45579032       1.21958030       0.00000000 NULL
P        1.19367379       5.25747309       3.39217150       0.00000000 NULL
P        4.09463729       7.24557432       1.61852774       0.00000000 NULL
P        4.51791262       5.78074748       3.68253094       0.00000000 NULL
P        0.72950191       0.11138218       2.23249926       0.00000000 NULL
10
Lattice="5.739943906765485 0.21508546037964707 0.2159214182695225 0.8895838276048402 7.161566716123969 -0.2985717520312524 0.8895838276048398 -0.3263497847233321 7.1603546517345515" Properties=species:S:1:pos:R:3:initial_magmoms:R:1:castep_labels:S:1 n_minim_iter=8 pbc="T T T"
P        4.86153842       6.07113439       6.56220279       0.00000000 NULL
P        1.10198264       3.01345182       2.55769186       0.00000000 NULL
P        2.06909133      -0.08778504       6.89167740       0.00000000 NULL
P        4.93906328       3.25555056       3.77637289       0.00000000 NULL
P        5.47118953       5.03713213       1.80379926       0.00000000 NULL
P        2.60121757       5.42066178       1.20666740       0.00000000 NULL
P        1.19293413       5.21538758       3.36495336       0.00000000 NULL
P        4.06290608       7.19619813       1.60689877       0.00000000 NULL
P        4.48750347       5.73575586       3.65757659       0.00000000 NULL
P        0.72794769       0.11014843       2.21104858       0.00000000 NULL
10
Lattice="5.7404182257669625 0.21411381894697037 0.21494600042480783 0.8885663196361808 7.174474200859151 -0.30848994322475454 0.8885663196361804 -0.3363179704415504 7.173223565916679" Properties=species:S:1:pos:R:3:initial_magmoms:R:1:castep_labels:S:1 n_minim_iter=9 pbc="T T T"
P        4.86058935       6.07257815       6.56714399       0.00000000 NULL
P        1.10181392       3.01740355       2.55816712       0.00000000 NULL
P        2.06612837      -0.09768176       6.90578972       0.00000000 NULL
P        4.93633749       3.25777750       3.77743683       0.00000000 NULL
P        5.47226973       5.03872884       1.80118371       0.00000000 NULL
P        2.60206061       5.42996371       1.19734811       0.00000000 NULL
P        1.18996092       5.21941075       3.36613030       0.00000000 NULL
P        4.06017004       7.20831146       1.59904522       0.00000000 NULL
P        4.48790200       5.73614714       3.65676840       0.00000000 NULL
P        0.72912657       0.10835490       2.21044907       0.00000000 NULL
10
Lattice="5.734824912343813 0.21381633822631624 0.21464736350626346 0.8876025455875771 7.180654355028823 -0.31736859109876486 0.8876025455875767 -0.3452205248184873 7.179369232617475" Properties=species:S:1:pos:R:3:initial_magmoms:R:1:castep_labels:S:1 n_minim_iter=10 pbc="T T T"
P        4.85619321       6.06954694       6.56729760       0.00000000 NULL
P        1.10117820       3.01907885       2.55665234       0.00000000 NULL
P        2.06200397      -0.10672760       6.91389678       0.00000000 NULL
P        4.92941643       3.25822949       3.77578535       0.00000000 NULL
P        5.46857368       5.03633122       1.79828860       0.00000000 NULL
P        2.60116122       5.43476801       1.18757644       0.00000000 NULL
P        1.18682281       5.21884670       3.36468061       0.00000000 NULL
P        4.05423526       7.21425659       1.59081407       0.00000000 NULL
P        4.48502339       5.73178780       3.65366503       0.00000000 NULL
P        0.73000839       0.10677840       2.20759353       0.00000000 NULL
10
Lattice="5.710704784024624 0.21214942698890496 0.21297397359940526 0.8830229263059336 7.208030499984073 -0.35616939931399905 0.8830229263059332 -0.3841272353235571 7.20659466022552" Properties=species:S:1:pos:R:3:initial_magmoms:R:1:castep_labels:S:1 n_minim_iter=11 pbc="T T T"
P        4.83655916       6.05626283       6.56889272       0.00000000 NULL
P        1.09818384       3.02732424       2.54999890       0.00000000 NULL
P        2.04329145      -0.14657598       6.95048569       0.00000000 NULL
P        4.89864385       3.26099782       3.76825562       0.00000000 NULL
P        5.45271581       5.02449457       1.78583033       0.00000000 NULL
P        2.59736342       5.45633064       1.14351512       0.00000000 NULL
P        1.17217077       5.21629314       3.35915342       0.00000000 NULL
P        4.02752317       7.24104732       1.55438928       0.00000000 NULL
P        4.47257323       5.71148191       3.64078887       0.00000000 NULL
P        0.73419791       0.10057985       2.19386223       0.00000000 NULL
10
Lattice="5.676177209674908 0.21046815059709037 0.21128616270608452 0.8772445398884168 7.247899898332326 -0.4054267207684135 0.8772445398884163 -0.43353884270650667 7.246272685596605" Properties=species:S:1:pos:R:3:initial_magmoms:R:1:castep_labels:S:1 n_minim_iter=12 pbc="T T T"
P        4.81043452       6.04297360       6.58653240       0.00000000 NULL
P        1.09510138       3.05062707       2.54241175       0.00000000 NULL
P        2.01230613      -0.19979935       7.01338430       0.00000000 NULL
P        4.85039473       3.27862127       3.75890041       0.00000000 NULL
P        5.43553325       4.99629284       1.77687696       0.00000000 NULL
P        2.59744465       5.49296788       1.07165511       0.00000000 NULL
P        1.14676820       5.21334581       3.36252016       0.00000000 NULL
P        3.98485680       7.28822532       1.50614345       0.00000000 NULL
P        4.46079541       5.67214227       3.63465608       0.00000000 NULL
P        0.74546227       0.10021145       2.16013265       0.00000000 NULL
10
Lattice="5.744903942440658 0.205698665208751 0.20649814008638612 0.8797968628655578 7.369264794163173 -0.41978501863010964 0.8797968628655574 -0.44836781649209423 7.367580971356414" Properties=species:S:1:pos:R:3:initial_magmoms:R:1:castep_labels:S:1 n_minim_iter=13 pbc="T T T"
P        4.85747981       6.13075586       6.71516498       0.00000000 NULL
P        1.10523097       3.12803495       2.57961134       0.00000000 NULL
P        2.00875450      -0.22034572       7.16210600       0.00000000 NULL
P        4.88120647       3.35693988       3.80437037       0.00000000 NULL
P        5.51246927       5.02047572       1.80866303       0.00000000 NULL
P        2.64001730       5.59514158       1.03052183       0.00000000 NULL
P        1.13018887       5.28750206       3.43662528       0.00000000 NULL
P        4.00264084       7.42775443       1.51035929       0.00000000 NULL
P        4.52222481       5.70631771       3.70558217       0.00000000 NULL
P        0.76997597       0.12012122       2.14350198       0.00000000 NULL
10
Lattice="5.659351745439269 0.21831970481764057 0.21916823302329166 0.8839899655296984 7.275595136044965 -0.4110071381968534 0.883989965529698 -0.4392266501493129 7.273946068062951" Properties=species:S:1:pos:R:3:initial_magmoms:R:1:castep_labels:S:1 n_minim_iter=14 pbc="T T T"
P        4.81523211       6.06554296       6.64597912       0.00000000 NULL
P        1.10156627       3.09505630       2.55022402       0.00000000 NULL
P        1.99563726      -0.21375031       7.07902818       0.00000000 NULL
P        4.82531313       3.33155303       3.76577213       0.00000000 NULL
P        5.44835075       4.96563014       1.80446053       0.00000000 NULL
P        2.61867488       5.53343592       1.02053170       0.00000000 NULL
P        1.13186084       5.22065820       3.39466311       0.00000000 NULL
P        3.96153671       7.34095697       1.50089460       0.00000000 NULL
P        4.48091056       5.63899991       3.67080248       0.00000000 NULL
P        0.76724472       0.12155664       2.11214323       0.00000000 NULL
10
Lattice="5.688101815873459 0.21380869727668578 0.2146396928590787 0.8822834987642614 7.308277340383498 -0.415158388925751 0.8822834987642608 -0.44350464647984883 7.306611923484716" Properties=species:S:1:pos:R:3:initial_magmoms:R:1:castep_labels:S:1 n_minim_iter=15 pbc="T T T"
P        4.82902323       6.08769251       6.67223218       0.00000000 NULL
P        1.10268882       3.10927664       2.56048221       0.00000000 NULL
P        1.99822421      -0.21851110       7.11130260       0.00000000 NULL
P        4.84227512       3.34311007       3.77728085       0.00000000 NULL
P        5.47129305       4.97952905       1.80691687       0.00000000 NULL
P        2.62724215       5.55657394       1.01829576       0.00000000 NULL
P        1.12859214       5.24235578       3.40979967       0.00000000 NULL
P        3.97264305       7.37223384       1.50197791       0.00000000 NULL
P        4.49645274       5.65722091       3.68383262       0.00000000 NULL
P        0.77011833       0.12256940       2.11842162       0.00000000 NULL
10
Lattice="5.689102974664866 0.21359049579902173 0.21442064331271435 0.8821566833540019 7.310911702370834 -0.41561761512701106 0.8821566833540013 -0.4439740881228375 7.309244484277571" Properties=species:S:1:pos:R:3:initial_magmoms:R:1:castep_labels:S:1 n_minim_iter=16 pbc="T T T"
P        4.82947777       6.08978216       6.67618633       0.00000000 NULL
P        1.10276960       3.11224931       2.56161004       0.00000000 NULL
P        1.99731004      -0.21986439       7.11592684       0.00000000 NULL
P        4.84186153       3.34607853       3.77738188       0.00000000 NULL
P        5.47307309       4.97785542       1.80822037       0.00000000 NULL
P        2.62852160       5.55954492       1.01519083       0.00000000 NULL
P        1.12688703       5.24341355       3.41165974       0.00000000 NULL
P        3.97143851       7.37553260       1.50138747       0.00000000 NULL
P        4.49820783       5.65597823       3.68595478       0.00000000 NULL
P        0.77149966       0.12372301       2.11621003       0.00000000 NULL
10
Lattice="5.725457862388731 0.2061883066717562 0.20698968460524403 0.8781265135870991 7.3884412830253625 -0.42843110768941756 0.8781265135870985 -0.4570882276057204 7.386723777083697" Properties=species:S:1:pos:R:3:initial_magmoms:R:1:castep_labels:S:1 n_minim_iter=17 pbc="T T T"
P        4.84571430       6.15042271       6.78272304       0.00000000 NULL
P        1.10485886       3.19004336       2.59404598       0.00000000 NULL
P        1.97627282      -0.25546879       7.24165220       0.00000000 NULL
P        4.83900175       3.42291809       3.78369636       0.00000000 NULL
P        5.52531411       4.94249496       1.84117226       0.00000000 NULL
P        2.66258518       5.64165668       0.93852754       0.00000000 NULL
P        1.08381644       5.27833622       3.46278797       0.00000000 NULL
P        3.94654537       7.46814574       1.48764633       0.00000000 NULL
P        4.54723673       5.63363392       3.74267455       0.00000000 NULL
P        0.80638129       0.15202240       2.06546849       0.00000000 NULL
