12
Lattice="4.313049999998193 -3.948804051571826e-06 0.0 -2.1565208983544264 4.479990931425997 0.0 0.0 0.0 13.74034" Properties=species:S:1:pos:R:3:initial_magmoms:R:1:castep_labels:S:1 n_minim_iter=1 pbc="T T T"
P        1.06793270       3.25293065       8.29180054       0.00000000 NULL
P        3.22445585       1.22705349       5.44853946       0.00000000 NULL
P        1.06793085       1.22705547       8.29180054       0.00000000 NULL
P       -1.08859230       3.25293263       5.44853946       0.00000000 NULL
P       -1.67545481       4.39884221       9.69477032       0.00000000 NULL
P        0.48106624       0.08114696       4.04556968       0.00000000 NULL
P        2.63759124       0.08114498       9.69477032       0.00000000 NULL
P        0.48107019       4.39884024       4.04556968       0.00000000 NULL
P        1.46900745       0.33234574       0.97292874       0.00000000 NULL
P       -0.68751406       4.14764163      12.76741126       0.00000000 NULL
P        1.46901094       4.14763965       0.97292874       0.00000000 NULL
P        3.62553245       0.33234376      12.76741126       0.00000000 NULL
12
Lattice="4.326150326339934 -3.96079802839508e-06 0.0 -2.1630710556256783 4.486434749372631 0.0 0.0 0.0 13.76247713628263" Properties=species:S:1:pos:R:3:initial_magmoms:R:1:castep_labels:S:1 n_minim_iter=2 pbc="T T T"
P        1.07129047       3.25763528       8.30499953       0.00000000 NULL
P        3.23436378       1.22879266       5.45747761       0.00000000 NULL
P        1.07128861       1.22879464       8.30499953       0.00000000 NULL
P       -1.09178469       3.25763726       5.45747761       0.00000000 NULL
P       -1.68065745       4.40500056       9.71050768       0.00000000 NULL
P        0.48241375       0.08143242       4.05196946       0.00000000 NULL
P        2.64548891       0.08143044       9.71050768       0.00000000 NULL
P        0.48241771       4.40499858       4.05196946       0.00000000 NULL
P        1.47346896       0.33300640       0.97472528       0.00000000 NULL
P       -0.68960270       4.15342477      12.78775186       0.00000000 NULL
P        1.47347246       4.15342279       0.97472528       0.00000000 NULL
P        3.63654412       0.33300442      12.78775186       0.00000000 NULL
12
Lattice="4.70200377235372 -4.304909877370254e-06 0.0 -2.3509976117636615 4.6686961683895225 0.0 0.0 0.0 14.382072972990306" Properties=species:S:1:pos:R:3:initial_magmoms:R:1:castep_labels:S:1 n_minim_iter=3 pbc="T T T"
P        1.16782800       3.39079476       8.67428002       0.00000000 NULL
P        3.51882796       1.27789404       5.70779295       0.00000000 NULL
P        1.16782607       1.27789620       8.67428002       0.00000000 NULL
P       -1.18317388       3.39079692       5.70779295       0.00000000 NULL
P       -1.83012291       4.57908170      10.15103471       0.00000000 NULL
P        0.52087487       0.08961260       4.23103826       0.00000000 NULL
P        2.87187676       0.08961045      10.15103471       0.00000000 NULL
P        0.52087898       4.57907954       4.23103826       0.00000000 NULL
P        1.60146922       0.35174182       1.02515446       0.00000000 NULL
P       -0.74952903       4.31695050      13.35691852       0.00000000 NULL
P        1.60147285       4.31694835       1.02515446       0.00000000 NULL
P        3.95247111       0.35173967      13.35691852       0.00000000 NULL
12
Lattice="4.738967534161209 -4.338751973419808e-06 0.0 -2.3694794789522113 4.68367649820098 0.0 0.0 0.0 14.455336711834882" Properties=species:S:1:pos:R:3:initial_magmoms:R:1:castep_labels:S:1 n_minim_iter=4 pbc="T T T"
P        1.17929454       3.40377192       8.71705195       0.00000000 NULL
P        3.54877636       1.27989716       5.73828477       0.00000000 NULL
P        1.17929259       1.27989933       8.71705195       0.00000000 NULL
P       -1.19018923       3.40377409       5.73828477       0.00000000 NULL
P       -1.84680150       4.59127368      10.20295607       0.00000000 NULL
P        0.52267815       0.09240094       4.25238064       0.00000000 NULL
P        2.89216192       0.09239877      10.20295607       0.00000000 NULL
P        0.52268227       4.59127151       4.25238064       0.00000000 NULL
P        1.61406436       0.35324601       1.03060476       0.00000000 NULL
P       -0.75541577       4.33042661      13.42473195       0.00000000 NULL
P        1.61406800       4.33042444       1.03060476       0.00000000 NULL
P        3.98354813       0.35324384      13.42473195       0.00000000 NULL
