28
Lattice="5.698497313344118 0.0 0.0 0.0 9.425143642341686 0.0 0.0 0.0 10.769992119535667" Properties=species:S:1:pos:R:3:initial_magmoms:R:1:castep_labels:S:1:forces:R:3 n_minim_iter=1 energy=-150.066577782906 stress="6.275421859124382e-06 -0.0 0.0 -0.0 -0.0002643456629417932 0.0 0.0 0.0 -0.0003623494274579809" free_energy=-150.066577782906 pbc="T T T"
P        1.34939789       0.50698125      -0.31272239       0.00000000 NULL       0.02361600       0.02582000       0.00712200
P        4.34909943       8.91816239      -0.31272239       0.00000000 NULL      -0.02361600      -0.02582000       0.00712200
P        1.34939789       8.91816239       5.07227367       0.00000000 NULL       0.02361600      -0.02582000       0.00712300
P        4.34909943       0.50698125       5.07227367       0.00000000 NULL      -0.02361600       0.02582000       0.00712300
P        1.04832435       9.05221672       7.30991140       0.00000000 NULL      -0.01443100       0.00034200       0.01103700
P        4.65017297       0.37292692       7.30991140       0.00000000 NULL       0.01443100      -0.00034200       0.01103700
P        1.04832435       0.37292692       1.92491534       0.00000000 NULL      -0.01443100      -0.00034200       0.01103700
P        4.65017297       9.05221672       1.92491534       0.00000000 NULL       0.01443100       0.00034200       0.01103700
P        2.36576631       1.55235653       5.23986181       0.00000000 NULL       0.02007000       0.00829900       0.01323400
P        3.33273100       7.87278712       5.23986181       0.00000000 NULL      -0.02007000      -0.00829900       0.01323400
P        2.36576631       7.87278712      10.62485787       0.00000000 NULL       0.02007000      -0.00830000       0.01323300
P        3.33273100       1.55235653      10.62485787       0.00000000 NULL      -0.02007000       0.00829900       0.01323400
P        5.43533795       7.15759658       2.79176832       0.00000000 NULL      -0.02367000      -0.00326100      -0.02733200
P        0.26315936       2.26754706       2.79176832       0.00000000 NULL       0.02367000       0.00326100      -0.02733200
P        5.43533795       2.26754706       8.17676438       0.00000000 NULL      -0.02367000       0.00326000      -0.02733200
P        0.26315936       7.15759658       8.17676438       0.00000000 NULL       0.02367000      -0.00326000      -0.02733200
P        4.59252306       4.76970734      10.08208698       0.00000000 NULL      -0.06417200       0.00380000      -0.03304200
P        1.10597425       4.65543630      10.08208698       0.00000000 NULL       0.06417200      -0.00380000      -0.03304200
P        4.59252306       4.65543630       4.69709092       0.00000000 NULL      -0.06417200      -0.00380000      -0.03304100
P        1.10597425       4.76970734       4.69709092       0.00000000 NULL       0.06417200       0.00380000      -0.03304100
P        0.07322844       5.79979037       0.93199786       0.00000000 NULL      -0.00241100      -0.00694900       0.04115800
P        5.62526888       3.62535328       0.93199786       0.00000000 NULL       0.00241100       0.00694900       0.04115800
P        0.07322844       3.62535328       6.31699392       0.00000000 NULL      -0.00241100       0.00695000       0.04115700
P        5.62526888       5.79979037       6.31699392       0.00000000 NULL       0.00241100      -0.00695000       0.04115700
P        3.41872046       2.86398751       8.79847349       0.00000000 NULL       0.03180400      -0.01931400      -0.01217800
P        2.27977685       6.56115613       8.79847349       0.00000000 NULL      -0.03180400       0.01931400      -0.01217800
P        3.41872046       6.56115613       3.41347743       0.00000000 NULL       0.03180400       0.01931400      -0.01217700
P        2.27977685       2.86398751       3.41347743       0.00000000 NULL      -0.03180400      -0.01931400      -0.01217700
28
Lattice="5.698443947355258 0.0 0.0 0.0 9.428862496551613 0.0 0.0 0.0 10.775817492177652" Properties=species:S:1:pos:R:3:initial_magmoms:R:1:castep_labels:S:1:forces:R:3 n_minim_iter=2 energy=-150.066724433195 stress="0.00027624302435477565 -0.0 -0.0 -0.0 0.00023453195121379882 0.0 -0.0 0.0 0.00020235483764790242" free_energy=-150.066724433195 pbc="T T T"
P        1.34944618       0.50724793      -0.31287316       0.00000000 NULL       0.02487500       0.02237300       0.01511000
P        4.34899777       8.92161457      -0.31287316       0.00000000 NULL      -0.02487500      -0.02237300       0.01511000
P        1.34944618       8.92161457       5.07503559       0.00000000 NULL       0.02487500      -0.02237300       0.01511300
P        4.34899777       0.50724793       5.07503559       0.00000000 NULL      -0.02487500       0.02237300       0.01511300
P        1.04827730       9.05578931       7.31389374       0.00000000 NULL      -0.01637000      -0.00379000       0.00582300
P        4.65016665       0.37307318       7.31389374       0.00000000 NULL       0.01637000       0.00379000       0.00582300
P        1.04827730       0.37307318       1.92598500       0.00000000 NULL      -0.01637000       0.00379000       0.00582600
P        4.65016665       9.05578931       1.92598500       0.00000000 NULL       0.01637000      -0.00379000       0.00582600
P        2.36579593       1.55299046       5.24273015       0.00000000 NULL       0.01901100       0.00568500       0.00774300
P        3.33264801       7.87587204       5.24273015       0.00000000 NULL      -0.01901100      -0.00568500       0.00774300
P        2.36579593       7.87587204      10.63063890       0.00000000 NULL       0.01901100      -0.00568500       0.00774300
P        3.33264801       1.55299046      10.63063890       0.00000000 NULL      -0.01901100       0.00568500       0.00774300
P        5.43522598       7.16041232       2.79320780       0.00000000 NULL      -0.02577000       0.00044200      -0.02987500
P        0.26321796       2.26845018       2.79320780       0.00000000 NULL       0.02577000      -0.00044200      -0.02987500
P        5.43522598       2.26845018       8.18111655       0.00000000 NULL      -0.02577000      -0.00044200      -0.02987600
P        0.26321796       7.16041232       8.18111655       0.00000000 NULL       0.02577000       0.00044200      -0.02987600
P        4.59231450       4.77159912      10.08745498       0.00000000 NULL      -0.05301500      -0.00039800      -0.02308600
P        1.10612945       4.65726337      10.08745498       0.00000000 NULL       0.05301500       0.00039800      -0.02308600
P        4.59231450       4.65726337       4.69954623       0.00000000 NULL      -0.05301300       0.00039900      -0.02308200
P        1.10612945       4.77159912       4.69954623       0.00000000 NULL       0.05301300      -0.00039800      -0.02308200
P        0.07322153       5.80206084       0.93260820       0.00000000 NULL      -0.00287400      -0.02149200       0.03054000
P        5.62522242       3.62680166       0.93260820       0.00000000 NULL       0.00287400       0.02149200       0.03054000
P        0.07322153       3.62680166       6.32051695       0.00000000 NULL      -0.00287400       0.02149400       0.03053600
P        5.62522242       5.80206084       6.32051695       0.00000000 NULL       0.00287400      -0.02149400       0.03053600
P        3.41877049       2.86506770       8.80320106       0.00000000 NULL       0.03463300      -0.02128400      -0.00625700
P        2.27967345       6.56379480       8.80320106       0.00000000 NULL      -0.03463300       0.02128400      -0.00625700
P        3.41877049       6.56379480       3.41529231       0.00000000 NULL       0.03463300       0.02128300      -0.00625700
P        2.27967345       2.86506770       3.41529231       0.00000000 NULL      -0.03463300      -0.02128300      -0.00625700
28
Lattice="5.6929916456016105 0.0 0.0 0.0 9.42855608772185 0.0 0.0 0.0 10.779702199053734" Properties=species:S:1:pos:R:3:initial_magmoms:R:1:castep_labels:S:1:forces:R:3 n_minim_iter=3 energy=-150.06702030347 stress="-0.00048572569247311585 -0.0 -0.0 -0.0 -1.0023871255449464e-06 -0.0 -0.0 -0.0 0.00029095150445774436" free_energy=-150.06702030347 pbc="T T T"
P        1.34841894       0.50749210      -0.31286143       0.00000000 NULL       0.01094100       0.02231200       0.01561100
P        4.34457271       8.92106399      -0.31286143       0.00000000 NULL      -0.01094100      -0.02231200       0.01561100
P        1.34841894       8.92106399       5.07698967       0.00000000 NULL       0.01094100      -0.02231200       0.01561200
P        4.34457271       0.50749210       5.07698967       0.00000000 NULL      -0.01094100       0.02231200       0.01561200
P        1.04710617       9.05547447       7.31661992       0.00000000 NULL       0.00109400      -0.00614000       0.00148900
P        4.64588548       0.37308162       7.31661992       0.00000000 NULL      -0.00109400       0.00614000       0.00148900
P        1.04710617       0.37308162       1.92676882       0.00000000 NULL       0.00109400       0.00614000       0.00149000
P        4.64588548       9.05547447       1.92676882       0.00000000 NULL      -0.00109400      -0.00614000       0.00149000
P        2.36374413       1.55301492       5.24473195       0.00000000 NULL       0.00605500       0.01298100       0.00644600
P        3.32924751       7.87554117       5.24473195       0.00000000 NULL      -0.00605500      -0.01298100       0.00644600
P        2.36374413       7.87554117      10.63458305       0.00000000 NULL       0.00605500      -0.01298100       0.00644600
P        3.32924751       1.55301492      10.63458305       0.00000000 NULL      -0.00605500       0.01298100       0.00644600
P        5.42975609       7.16016591       2.79390226       0.00000000 NULL      -0.00821000       0.00137700      -0.03104500
P        0.26323556       2.26839017       2.79390226       0.00000000 NULL       0.00821000      -0.00137700      -0.03104500
P        5.42975609       2.26839017       8.18375336       0.00000000 NULL      -0.00821000      -0.00137700      -0.03104500
P        0.26323556       7.16016591       8.18375336       0.00000000 NULL       0.00821000       0.00137700      -0.03104500
P        4.58728891       4.77146073      10.09079038       0.00000000 NULL      -0.05640200      -0.00154300      -0.01632600
P        1.10570273       4.65709535      10.09079038       0.00000000 NULL       0.05640200       0.00154300      -0.01632600
P        4.58728891       4.65709535       4.70093928       0.00000000 NULL      -0.05640100       0.00154300      -0.01632500
P        1.10570273       4.77146073       4.70093928       0.00000000 NULL       0.05640100      -0.00154300      -0.01632500
P        0.07312256       5.80171122       0.93333002       0.00000000 NULL      -0.00045200      -0.02239900       0.02378500
P        5.61986908       3.62684486       0.93333002       0.00000000 NULL       0.00045200       0.02239900       0.02378500
P        0.07312256       3.62684486       6.32318112       0.00000000 NULL      -0.00045200       0.02240000       0.02378400
P        5.61986908       5.80171122       6.32318112       0.00000000 NULL       0.00045200      -0.02240000       0.02378400
P        3.41586147       2.86475289       8.80627688       0.00000000 NULL       0.01707100      -0.01707600       0.00003900
P        2.27713018       6.56380319       8.80627688       0.00000000 NULL      -0.01707100       0.01707600       0.00003900
P        3.41586147       6.56380319       3.41642578       0.00000000 NULL       0.01707100       0.01707600       0.00003900
P        2.27713018       2.86475289       3.41642578       0.00000000 NULL      -0.01707100      -0.01707600       0.00003900
28
Lattice="5.696703735372396 0.0 0.0 0.0 9.429067223074382 0.0 0.0 0.0 10.77056456806344" Properties=species:S:1:pos:R:3:initial_magmoms:R:1:castep_labels:S:1:forces:R:3 n_minim_iter=4 energy=-150.067929275628 stress="9.556871091744677e-05 0.0 0.0 0.0 -0.00013058810109989335 -0.0 0.0 -0.0 9.112646843132202e-05" free_energy=-150.067929275628 pbc="T T T"
P        1.35027590       0.50863533      -0.31200494       0.00000000 NULL       0.00855700       0.01353200       0.00523500
P        4.34642783       8.92043190      -0.31200494       0.00000000 NULL      -0.00855700      -0.01353200       0.00523500
P        1.35027590       8.92043190       5.07327734       0.00000000 NULL       0.00855700      -0.01353300       0.00523300
P        4.34642783       0.50863533       5.07327734       0.00000000 NULL      -0.00855700       0.01353300       0.00523300
P        1.04727004       9.05582338       7.31072348       0.00000000 NULL       0.00332600       0.00192800       0.00484300
P        4.64943369       0.37324384       7.31072348       0.00000000 NULL      -0.00332600      -0.00192800       0.00484300
P        1.04727004       0.37324384       1.92544119       0.00000000 NULL       0.00332600      -0.00192800       0.00484000
P        4.64943369       9.05582338       1.92544119       0.00000000 NULL      -0.00332600       0.00192800       0.00484000
P        2.36603618       1.55350507       5.24072627       0.00000000 NULL       0.00163600       0.00359800       0.01247500
P        3.33066755       7.87556215       5.24072627       0.00000000 NULL      -0.00163600      -0.00359800       0.01247500
P        2.36603618       7.87556215      10.62600855       0.00000000 NULL       0.00163600      -0.00359700       0.01247500
P        3.33066755       1.55350507      10.62600855       0.00000000 NULL      -0.00163600       0.00359700       0.01247500
P        5.43233673       7.16052631       2.79014543       0.00000000 NULL       0.00454400      -0.00264400      -0.02063900
P        0.26436700       2.26854091       2.79014543       0.00000000 NULL      -0.00454400       0.00264400      -0.02063900
P        5.43233673       2.26854091       8.17542771       0.00000000 NULL       0.00454400       0.00264400      -0.02063800
P        0.26436700       7.16052631       8.17542771       0.00000000 NULL      -0.00454400      -0.00264400      -0.02063800
P        4.58754523       4.77175467      10.08106687       0.00000000 NULL       0.02656500      -0.00489500       0.00556400
P        1.10915851       4.65731255      10.08106687       0.00000000 NULL      -0.02656500       0.00489500       0.00556400
P        4.58754523       4.65731255       4.69578458       0.00000000 NULL       0.02656200       0.00489400       0.00556100
P        1.10915851       4.77175467       4.69578458       0.00000000 NULL      -0.02656200      -0.00489400       0.00556100
P        0.07307290       5.80123431       0.93407273       0.00000000 NULL       0.00233700      -0.01843500      -0.00599600
P        5.62363084       3.62783291       0.93407273       0.00000000 NULL      -0.00233700       0.01843500      -0.00599600
P        0.07307290       3.62783291       6.31935501       0.00000000 NULL       0.00233700       0.01843300      -0.00599200
P        5.62363084       5.80123431       6.31935501       0.00000000 NULL      -0.00233700      -0.01843300      -0.00599200
P        3.41945598       2.86398621       8.79849953       0.00000000 NULL       0.00321100      -0.00667400      -0.00148100
P        2.27724775       6.56508102       8.79849953       0.00000000 NULL      -0.00321100       0.00667400      -0.00148100
P        3.41945598       6.56508102       3.41321725       0.00000000 NULL       0.00321000       0.00667400      -0.00148100
P        2.27724775       2.86398621       3.41321725       0.00000000 NULL      -0.00321000      -0.00667400      -0.00148100
28
Lattice="5.695618762655846 0.0 0.0 0.0 9.435115145925858 0.0 0.0 0.0 10.765646667182311" Properties=species:S:1:pos:R:3:initial_magmoms:R:1:castep_labels:S:1:forces:R:3 n_minim_iter=5 energy=-150.067998310362 stress="-4.3904137835810486e-06 0.0 -0.0 0.0 0.00012879123268292282 -0.0 -0.0 -0.0 -8.960592540978013e-05" free_energy=-150.067998310362 pbc="T T T"
P        1.35015594       0.50915274      -0.31177636       0.00000000 NULL       0.00926600       0.00955100       0.00069200
P        4.34546282       8.92596241      -0.31177636       0.00000000 NULL      -0.00926600      -0.00955100       0.00069200
P        1.35015594       8.92596241       5.07104697       0.00000000 NULL       0.00926600      -0.00955100       0.00069000
P        4.34546282       0.50915274       5.07104697       0.00000000 NULL      -0.00926600       0.00955100       0.00069000
P        1.04706037       9.06163444       7.30744490       0.00000000 NULL       0.00372700      -0.00256400       0.01092200
P        4.64855839       0.37348071       7.30744490       0.00000000 NULL      -0.00372700       0.00256400       0.01092200
P        1.04706037       0.37348071       1.92462157       0.00000000 NULL       0.00372700       0.00256400       0.01092000
P        4.64855839       9.06163444       1.92462157       0.00000000 NULL      -0.00372700      -0.00256400       0.01092000
P        2.36565333       1.55456387       5.23846190       0.00000000 NULL      -0.00114100      -0.00212700       0.01338600
P        3.32996544       7.88055127       5.23846190       0.00000000 NULL       0.00114100       0.00212700       0.01338600
P        2.36565333       7.88055127      10.62128524       0.00000000 NULL      -0.00114100       0.00212700       0.01338600
P        3.32996544       1.55456387      10.62128524       0.00000000 NULL       0.00114100      -0.00212700       0.01338600
P        5.43126575       7.16509717       2.78860550       0.00000000 NULL       0.00553100       0.00305500      -0.02112800
P        0.26435301       2.27001797       2.78860550       0.00000000 NULL      -0.00553100      -0.00305500      -0.02112800
P        5.43126575       2.27001797       8.17142884       0.00000000 NULL       0.00553100      -0.00305500      -0.02112800
P        0.26435301       7.16509717       8.17142884       0.00000000 NULL      -0.00553100       0.00305500      -0.02112800
P        4.58664918       4.77478135      10.07641346       0.00000000 NULL       0.02087800      -0.00499500       0.00308400
P        1.10896959       4.66033379      10.07641346       0.00000000 NULL      -0.02087800       0.00499500       0.00308400
P        4.58664918       4.66033379       4.69359012       0.00000000 NULL       0.02087700       0.00499500       0.00308100
P        1.10896959       4.77478135       4.69359012       0.00000000 NULL      -0.02087700      -0.00499500       0.00308100
P        0.07306958       5.80475436       0.93372253       0.00000000 NULL       0.00157000      -0.02701200      -0.00459700
P        5.62254918       3.63036078       0.93372253       0.00000000 NULL      -0.00157000       0.02701200      -0.00459700
P        0.07306958       3.63036078       6.31654586       0.00000000 NULL       0.00157000       0.02701100      -0.00459400
P        5.62254918       5.80475436       6.31654586       0.00000000 NULL      -0.00157000      -0.02701100      -0.00459400
P        3.41893169       2.86570091       8.79444781       0.00000000 NULL       0.00013800      -0.00630800      -0.00235700
P        2.27668708       6.56941423       8.79444781       0.00000000 NULL      -0.00013800       0.00630800      -0.00235700
P        3.41893169       6.56941423       3.41162447       0.00000000 NULL       0.00013700       0.00630800      -0.00235700
P        2.27668708       2.86570091       3.41162447       0.00000000 NULL      -0.00013700      -0.00630800      -0.00235700
28
Lattice="5.6964354786911 0.0 0.0 0.0 9.438429220828816 0.0 0.0 0.0 10.765972241524878" Properties=species:S:1:pos:R:3:initial_magmoms:R:1:castep_labels:S:1:forces:R:3 n_minim_iter=6 energy=-150.068324084292 stress="2.9714767844608073e-05 -0.0 -0.0 -0.0 3.1045021986488786e-05 -0.0 -0.0 -0.0 -8.067904990367424e-06" free_energy=-150.068324084292 pbc="T T T"
P        1.35131333       0.51058500      -0.31137197       0.00000000 NULL       0.00226800      -0.00041400       0.00581800
P        4.34512215       8.92784422      -0.31137197       0.00000000 NULL      -0.00226800       0.00041400       0.00581800
P        1.35131333       8.92784422       5.07161415       0.00000000 NULL       0.00226800       0.00041400       0.00581900
P        4.34512215       0.51058500       5.07161415       0.00000000 NULL      -0.00226800      -0.00041400       0.00581900
P        1.04735757       9.06472495       7.30837013       0.00000000 NULL       0.00041700      -0.00168300       0.00328200
P        4.64907791       0.37370427       7.30837013       0.00000000 NULL      -0.00041700       0.00168300       0.00328200
P        1.04735757       0.37370427       1.92538401       0.00000000 NULL       0.00041700       0.00168300       0.00328400
P        4.64907791       9.06472495       1.92538401       0.00000000 NULL      -0.00041700      -0.00168300       0.00328400
P        2.36622227       1.55532111       5.23974722       0.00000000 NULL      -0.00782800      -0.00619300       0.00512000
P        3.33021321       7.88310811       5.23974722       0.00000000 NULL       0.00782800       0.00619300       0.00512000
P        2.36622227       7.88310811      10.62273334       0.00000000 NULL      -0.00782800       0.00619300       0.00512000
P        3.33021321       1.55532111      10.62273334       0.00000000 NULL       0.00782800      -0.00619300       0.00512000
P        5.43215114       7.16763638       2.78663003       0.00000000 NULL       0.00301300       0.00149100      -0.01062400
P        0.26428433       2.27079284       2.78663003       0.00000000 NULL      -0.00301300      -0.00149100      -0.01062400
P        5.43215114       2.27079284       8.16961615       0.00000000 NULL       0.00301300      -0.00149100      -0.01062400
P        0.26428433       7.16763638       8.16961615       0.00000000 NULL      -0.00301300       0.00149100      -0.01062400
P        4.58808086       4.77609808      10.07663868       0.00000000 NULL       0.00408000      -0.00335000      -0.00664400
P        1.10835462       4.66233114      10.07663868       0.00000000 NULL      -0.00408000       0.00335000      -0.00664300
P        4.58808086       4.66233114       4.69365256       0.00000000 NULL       0.00408100       0.00335000      -0.00664200
P        1.10835462       4.77609808       4.69365256       0.00000000 NULL      -0.00408100      -0.00335000      -0.00664200
P        0.07319904       5.80478866       0.93388351       0.00000000 NULL       0.00051400       0.01787900       0.00030100
P        5.62323643       3.63364056       0.93388351       0.00000000 NULL      -0.00051400      -0.01787900       0.00030100
P        0.07319904       3.63364056       6.31686963       0.00000000 NULL       0.00051400      -0.01787800       0.00029900
P        5.62323643       5.80478866       6.31686963       0.00000000 NULL      -0.00051400       0.01787800       0.00029900
P        3.41995585       2.86591123       8.79447536       0.00000000 NULL       0.00234200      -0.00548500       0.00274400
P        2.27647963       6.57251799       8.79447536       0.00000000 NULL      -0.00234200       0.00548500       0.00274400
P        3.41995585       6.57251799       3.41148924       0.00000000 NULL       0.00234200       0.00548500       0.00274500
P        2.27647963       2.86591123       3.41148924       0.00000000 NULL      -0.00234200      -0.00548500       0.00274500
28
Lattice="5.697078341780181 0.0 0.0 0.0 9.437552986891129 0.0 0.0 0.0 10.765834654246397" Properties=species:S:1:pos:R:3:initial_magmoms:R:1:castep_labels:S:1:forces:R:3 n_minim_iter=7 energy=-150.068462607072 stress="2.9058065805064538e-05 0.0 -0.0 0.0 2.0886564541214638e-05 0.0 -0.0 0.0 -1.2853270486901317e-05" free_energy=-150.068462607072 pbc="T T T"
P        1.35201833       0.51104656      -0.31065171       0.00000000 NULL      -0.00418300      -0.00004400       0.00443200
P        4.34506001       8.92650643      -0.31065171       0.00000000 NULL       0.00418300       0.00004400       0.00443200
P        1.35201833       8.92650643       5.07226562       0.00000000 NULL      -0.00418200       0.00004400       0.00443000
P        4.34506001       0.51104656       5.07226562       0.00000000 NULL       0.00418200      -0.00004400       0.00443000
P        1.04763051       9.06370490       7.30882151       0.00000000 NULL      -0.00070400       0.00438100      -0.00007100
P        4.64944783       0.37384809       7.30882151       0.00000000 NULL       0.00070400      -0.00438100      -0.00007100
P        1.04763051       0.37384809       1.92590419       0.00000000 NULL      -0.00070400      -0.00438100      -0.00007400
P        4.64944783       9.06370490       1.92590419       0.00000000 NULL       0.00070400       0.00438100      -0.00007400
P        2.36585606       1.55476740       5.24059721       0.00000000 NULL      -0.00679200      -0.00207100       0.00117600
P        3.33122228       7.88278558       5.24059721       0.00000000 NULL       0.00679200       0.00207100       0.00117600
P        2.36585606       7.88278558      10.62351454       0.00000000 NULL      -0.00679200       0.00207100       0.00117600
P        3.33122228       1.55476740      10.62351454       0.00000000 NULL       0.00679200      -0.00207100       0.00117600
P        5.43312498       7.16709024       2.78478322       0.00000000 NULL       0.00165400      -0.00270100       0.00213000
P        0.26395337       2.27046274       2.78478322       0.00000000 NULL      -0.00165400       0.00270100       0.00213000
P        5.43312498       2.27046274       8.16770054       0.00000000 NULL       0.00165400       0.00270100       0.00213100
P        0.26395337       7.16709024       8.16770054       0.00000000 NULL      -0.00165400      -0.00270100       0.00213100
P        4.58922786       4.77520732      10.07588978       0.00000000 NULL      -0.00449300      -0.00143700      -0.00182700
P        1.10785049       4.66234566      10.07588978       0.00000000 NULL       0.00449300       0.00143700      -0.00182700
P        4.58922786       4.66234566       4.69297246       0.00000000 NULL      -0.00449500       0.00143700      -0.00183000
P        1.10785049       4.77520732       4.69297246       0.00000000 NULL       0.00449500      -0.00143700      -0.00183000
P        0.07331264       5.80507887       0.93395638       0.00000000 NULL      -0.00359200      -0.00626600      -0.00951600
P        5.62376571       3.63247412       0.93395638       0.00000000 NULL       0.00359200       0.00626600      -0.00951600
P        0.07331264       3.63247412       6.31687371       0.00000000 NULL      -0.00359200       0.00626500      -0.00951300
P        5.62376571       5.80507887       6.31687371       0.00000000 NULL       0.00359200      -0.00626500      -0.00951300
P        3.42073604       2.86482888       8.79453139       0.00000000 NULL       0.00536800      -0.00331000       0.00367900
P        2.27634230       6.57272410       8.79453139       0.00000000 NULL      -0.00536800       0.00331000       0.00367900
P        3.42073604       6.57272410       3.41161406       0.00000000 NULL       0.00536700       0.00331100       0.00367900
P        2.27634230       2.86482888       3.41161406       0.00000000 NULL      -0.00536700      -0.00331000       0.00367900
28
Lattice="5.695598900342695 0.0 0.0 0.0 9.438660010435573 0.0 0.0 0.0 10.770585318010212" Properties=species:S:1:pos:R:3:initial_magmoms:R:1:castep_labels:S:1:forces:R:3 n_minim_iter=8 energy=-150.068646907864 stress="3.476600074444078e-05 -0.0 0.0 -0.0 1.2555828386094611e-05 -0.0 0.0 -0.0 -1.3471177635699858e-06" free_energy=-150.068646907864 pbc="T T T"
P        1.35116337       0.51176424      -0.30866026       0.00000000 NULL      -0.00065200       0.00480600      -0.00063700
P        4.34443553       8.92689577      -0.30866026       0.00000000 NULL       0.00065200      -0.00480600      -0.00063700
P        1.35116337       8.92689577       5.07663240       0.00000000 NULL      -0.00065200      -0.00480500      -0.00063500
P        4.34443553       0.51176424       5.07663240       0.00000000 NULL       0.00065200       0.00480500      -0.00063500
P        1.04751748       9.06567349       7.31260386       0.00000000 NULL       0.00336900      -0.00924700       0.00512200
P        4.64808142       0.37298653       7.31260386       0.00000000 NULL      -0.00336900       0.00924700       0.00512200
P        1.04751748       0.37298653       1.92731120       0.00000000 NULL       0.00336900       0.00924700       0.00512400
P        4.64808142       9.06567349       1.92731120       0.00000000 NULL      -0.00336900      -0.00924700       0.00512400
P        2.36258791       1.55401020       5.24434048       0.00000000 NULL       0.00396800      -0.00133100      -0.00259600
P        3.33301099       7.88464981       5.24434048       0.00000000 NULL      -0.00396800       0.00133100      -0.00259600
P        2.36258791       7.88464981      10.62963314       0.00000000 NULL       0.00396800       0.00133100      -0.00259600
P        3.33301099       1.55401020      10.62963314       0.00000000 NULL      -0.00396800      -0.00133100      -0.00259600
P        5.43272438       7.16734304       2.78423193       0.00000000 NULL       0.00771400       0.00539400       0.00275400
P        0.26287452       2.27131697       2.78423193       0.00000000 NULL      -0.00771400      -0.00539400       0.00275400
P        5.43272438       2.27131697       8.16952459       0.00000000 NULL       0.00771400      -0.00539400       0.00275400
P        0.26287452       7.16734304       8.16952459       0.00000000 NULL      -0.00771400       0.00539400       0.00275400
P        4.58755506       4.77482924      10.07906806       0.00000000 NULL      -0.00306300      -0.00175400      -0.00445700
P        1.10804384       4.66383077      10.07906806       0.00000000 NULL       0.00306300       0.00175400      -0.00445700
P        4.58755506       4.66383077       4.69377540       0.00000000 NULL      -0.00306200       0.00175500      -0.00445400
P        1.10804384       4.77482924       4.69377540       0.00000000 NULL       0.00306200      -0.00175500      -0.00445400
P        0.07254329       5.80555156       0.93206723       0.00000000 NULL      -0.00369500      -0.00184600      -0.00248600
P        5.62305561       3.63310845       0.93206723       0.00000000 NULL       0.00369500       0.00184600      -0.00248600
P        0.07254329       3.63310845       6.31735989       0.00000000 NULL      -0.00369500       0.00184800      -0.00248800
P        5.62305561       5.80555156       6.31735989       0.00000000 NULL       0.00369500      -0.00184800      -0.00248800
P        3.42161484       2.86329201       8.79964523       0.00000000 NULL      -0.00339400      -0.00084800       0.00229800
P        2.27398406       6.57536800       8.79964523       0.00000000 NULL       0.00339400       0.00084800       0.00229800
P        3.42161484       6.57536800       3.41435257       0.00000000 NULL      -0.00339400       0.00084800       0.00229800
P        2.27398406       2.86329201       3.41435257       0.00000000 NULL       0.00339400      -0.00084800       0.00229800
28
Lattice="5.689380441612707 0.0 0.0 0.0 9.444715322705054 0.0 0.0 0.0 10.77365593260823" Properties=species:S:1:pos:R:3:initial_magmoms:R:1:castep_labels:S:1:forces:R:3 n_minim_iter=9 energy=-150.068839939151 stress="2.4666714308292587e-05 0.0 -0.0 0.0 2.642862247317063e-06 0.0 -0.0 0.0 9.604126859531287e-06" free_energy=-150.068839939151 pbc="T T T"
P        1.34885025       0.51408079      -0.30661874       0.00000000 NULL      -0.00271600       0.00023700      -0.00045300
P        4.34053019       8.93063453      -0.30661874       0.00000000 NULL       0.00271600      -0.00023700      -0.00045300
P        1.34885025       8.93063453       5.08020923       0.00000000 NULL      -0.00271600      -0.00023700      -0.00045300
P        4.34053019       0.51408079       5.08020923       0.00000000 NULL       0.00271600       0.00023700      -0.00045300
P        1.04759838       9.06996891       7.31658394       0.00000000 NULL      -0.00549800      -0.00234400       0.00110400
P        4.64178206       0.37474641       7.31658394       0.00000000 NULL       0.00549800       0.00234400       0.00110400
P        1.04759838       0.37474641       1.92975598       0.00000000 NULL      -0.00549800       0.00234400       0.00110400
P        4.64178206       9.06996891       1.92975598       0.00000000 NULL       0.00549800      -0.00234400       0.00110400
P        2.35810947       1.55373105       5.24665817       0.00000000 NULL      -0.00280000      -0.00134800       0.00047500
P        3.33127097       7.89098427       5.24665817       0.00000000 NULL       0.00280000       0.00134800       0.00047500
P        2.35810947       7.89098427      10.63348614       0.00000000 NULL      -0.00280000       0.00134800       0.00047500
P        3.33127097       1.55373105      10.63348614       0.00000000 NULL       0.00280000      -0.00134800       0.00047500
P        5.43006829       7.17274612       2.78382621       0.00000000 NULL       0.00238100      -0.00432400       0.00337400
P        0.25931215       2.27196921       2.78382621       0.00000000 NULL      -0.00238100       0.00432400       0.00337400
P        5.43006829       2.27196921       8.17065418       0.00000000 NULL       0.00238100       0.00432400       0.00337400
P        0.25931215       7.17274612       8.17065418       0.00000000 NULL      -0.00238100      -0.00432400       0.00337400
P        4.58111197       4.77642214      10.07940412       0.00000000 NULL       0.00061500      -0.00773500      -0.00156600
P        1.10826847       4.66829318      10.07940412       0.00000000 NULL      -0.00061500       0.00773500      -0.00156600
P        4.58111197       4.66829318       4.69257615       0.00000000 NULL       0.00061400       0.00773500      -0.00156600
P        1.10826847       4.77642214       4.69257615       0.00000000 NULL      -0.00061400      -0.00773500      -0.00156600
P        0.07072122       5.80878184       0.92923771       0.00000000 NULL       0.00198900      -0.00154500       0.00378100
P        5.61865922       3.63593348       0.92923771       0.00000000 NULL      -0.00198900       0.00154500       0.00378100
P        0.07072122       3.63593348       6.31606568       0.00000000 NULL       0.00198900       0.00154500       0.00378100
P        5.61865922       5.80878184       6.31606568       0.00000000 NULL      -0.00198900      -0.00154500       0.00378100
P        3.41870713       2.86293340       8.80413894       0.00000000 NULL       0.00040600      -0.00064500      -0.00671500
P        2.27067331       6.58178192       8.80413894       0.00000000 NULL      -0.00040600       0.00064500      -0.00671500
P        3.41870713       6.58178192       3.41731097       0.00000000 NULL       0.00040600       0.00064500      -0.00671500
P        2.27067331       2.86293340       3.41731097       0.00000000 NULL      -0.00040600      -0.00064500      -0.00671500
