9
Lattice="4.9420685679819325 -4.700520722435488e-16 0.0 -2.4710342839909663 4.279956927116936 0.0 0.0 0.0 7.450344976510522" Properties=species:S:1:pos:R:3:initial_magmoms:R:1:castep_labels:S:1:forces:R:3 n_minim_iter=1 energy=-47.339287638668 stress="0.0006441458801939825 0.0 -0.0 0.0 0.0006441458801939825 -0.0 -0.0 -0.0 -0.006281612139324453" free_energy=-47.339287638668 pbc="T T T"
P        2.02238220       2.97712412       3.31707132       0.00000000 NULL       0.12913200      -0.28764000       0.04281600
P        4.03810830       1.03996051       0.83362300       0.00000000 NULL      -0.31366700       0.03198900       0.04281500
P        1.35261235       0.26287231       5.80051965       0.00000000 NULL       0.18453700       0.25565000       0.04281500
P       -1.42799646       2.48063771       4.96928135       0.00000000 NULL       0.12480700      -0.08907700       0.22246800
P        0.39125922       4.27631929       2.48583303       0.00000000 NULL      -0.13954600      -0.06354700       0.22246700
P        1.03673724       1.80295686       7.45272968       0.00000000 NULL       0.01473700       0.15262500       0.22246800
P        0.44005410       1.56396540       4.13552032       0.00000000 NULL      -0.12839500      -0.32069500      -0.26528400
P       -1.33662757       3.11687620       1.65207200       0.00000000 NULL      -0.21353400       0.27154100      -0.26528300
P        0.89657347       3.87907226       6.61896865       0.00000000 NULL       0.34192900       0.04915400      -0.26528300
9
Lattice="4.934437820042968 3.5224986030318536e-16 0.0 -2.4672189100214843 4.273348505551917 0.0 0.0 0.0 7.563463409483907" Properties=species:S:1:pos:R:3:initial_magmoms:R:1:castep_labels:S:1:forces:R:3 n_minim_iter=2 energy=-47.355180506604 stress="0.00503406112427534 0.0 -0.0 0.0 0.00503406112427534 -0.0 -0.0 -0.0 0.006469408406611349" free_energy=-47.355180506604 pbc="T T T"
P        2.02122222       2.96815551       3.36809600       0.00000000 NULL       0.15322800      -0.25541700       0.04215300
P        4.02710587       1.03884096       0.84694153       0.00000000 NULL      -0.29781000      -0.00499100       0.04215400
P        1.35332864       0.26635204       5.88925047       0.00000000 NULL       0.14458500       0.26040400       0.04215100
P       -1.42389464       2.47545364       5.04816777       0.00000000 NULL       0.12031700      -0.04961600       0.10122400
P        0.38853414       4.26875062       2.52701330       0.00000000 NULL      -0.10312900      -0.07938700       0.10122400
P        1.03536049       1.80249276       7.56932224       0.00000000 NULL      -0.01718900       0.12900600       0.10122600
P        0.43742316       1.55667633       4.19421026       0.00000000 NULL      -0.11749200      -0.30390400      -0.14337700
P       -1.33780925       3.11619077       1.67305579       0.00000000 NULL      -0.20444300       0.25370300      -0.14337600
P        0.90038608       3.87382991       6.71536473       0.00000000 NULL       0.32193300       0.05020200      -0.14337800
9
Lattice="4.847262962019973 1.0189161323779169e-16 0.0 -2.4236314810099864 4.197852863932702 0.0 0.0 0.0 7.624633504302026" Properties=species:S:1:pos:R:3:initial_magmoms:R:1:castep_labels:S:1:forces:R:3 n_minim_iter=3 energy=-47.395069510503 stress="-0.0020760338454741843 0.0 -0.0 0.0 -0.0020759693903887894 0.0 -0.0 0.0 0.004524295809102096" free_energy=-47.395069510503 pbc="T T T"
P        1.99182127       2.90324248       3.39736589       0.00000000 NULL       0.22390600      -0.15960200       0.03766700
P        3.94200259       1.02126380       0.85582139       0.00000000 NULL      -0.25017400      -0.11410800       0.03766600
P        1.33707058       0.27334658       5.93891039       0.00000000 NULL       0.02626400       0.27370900       0.03766800
P       -1.39315210       2.42839730       5.09725438       0.00000000 NULL       0.02114800      -0.13643700       0.06241100
P        0.37599832       4.19015933       2.55570988       0.00000000 NULL      -0.12873200       0.04990600       0.06240900
P        1.01715378       1.77714910       7.63879889       0.00000000 NULL       0.10758500       0.08653300       0.06240700
P        0.42406276       1.51491508       4.21784194       0.00000000 NULL      -0.10257900      -0.40570200      -0.10007800
P       -1.32370792       3.07314621       1.67629744       0.00000000 NULL      -0.30005900       0.29168600      -0.10007800
P        0.89964516       3.80764445       6.75938644       0.00000000 NULL       0.40264000       0.11401500      -0.10007400
9
Lattice="4.842848598768511 6.015575875084949e-16 0.0 -2.421424299384256 4.194029913215406 0.0 0.0 0.0 7.51667943751523" Properties=species:S:1:pos:R:3:initial_magmoms:R:1:castep_labels:S:1:forces:R:3 n_minim_iter=4 energy=-47.500465229361 stress="5.613353041391331e-05 0.0 -0.0 0.0 5.60680303784245e-05 -0.0 -0.0 -0.0 0.0005769243125854708" free_energy=-47.500465229361 pbc="T T T"
P        2.02328861       2.85805124       3.35729996       0.00000000 NULL      -0.13401900      -0.04802400       0.00854300
P        3.88492498       1.01278496       0.85174015       0.00000000 NULL       0.02542100       0.14007700       0.00854400
P        1.35605931       0.32319371       5.86285977       0.00000000 NULL       0.10860100      -0.09205400       0.00854100
P       -1.37732235       2.40628408       5.05117290       0.00000000 NULL       0.04181700       0.00443600       0.08783700
P        0.35114002       4.18368402       2.54561309       0.00000000 NULL      -0.01706700      -0.03843300       0.08783700
P        1.02618233       1.79809173       7.55673271       0.00000000 NULL      -0.02475200       0.03399700       0.08784100
P        0.40188518       1.44591749       4.12399872       0.00000000 NULL      -0.01603100      -0.15600800      -0.09638100
P       -1.37016561       3.12302839       1.61843890       0.00000000 NULL      -0.12709300       0.09188800      -0.09637900
P        0.96828043       3.81911395       6.62955853       0.00000000 NULL       0.14312400       0.06412100      -0.09638300
9
Lattice="4.863012141948682 -1.1133432194028604e-16 0.0 -2.431506070974341 4.211492053839738 0.0 0.0 0.0 7.425235267412822" Properties=species:S:1:pos:R:3:initial_magmoms:R:1:castep_labels:S:1:forces:R:3 n_minim_iter=5 energy=-47.522911665806 stress="0.0016361243448827579 -0.0 0.0 -0.0 0.0016361243448827579 -0.0 0.0 -0.0 0.0011072986553386423" free_energy=-47.522911665806 pbc="T T T"
P        2.00350903       2.86019064       3.31829908       0.00000000 NULL       0.01266000      -0.09083300       0.04903600
P        3.90674931       1.04630702       0.84322066       0.00000000 NULL      -0.08499400       0.03445200       0.04903700
P        1.38425987       0.30499440       5.79337750       0.00000000 NULL       0.07233400       0.05638100       0.04903400
P       -1.37460998       2.41688715       5.00918180       0.00000000 NULL       0.02089900      -0.12610800      -0.06822900
P        0.34888459       4.19349565       2.53410337       0.00000000 NULL      -0.11966200       0.04495500      -0.06822900
P        1.02572540       1.81260132       7.48426022       0.00000000 NULL       0.09876400       0.08115300      -0.06822800
P        0.40026429       1.41883107       4.05252690       0.00000000 NULL      -0.03912300      -0.05859400       0.01919300
P       -1.40289447       3.15543748       1.57744848       0.00000000 NULL      -0.03118200       0.06317800       0.01919300
P        1.00263018       3.84871556       6.52760532       0.00000000 NULL       0.07030500      -0.00458400       0.01919200
9
Lattice="4.843464828296457 6.700859171593718e-16 0.0 -2.4217324141482295 4.194563583641169 0.0 0.0 0.0 7.415343670431043" Properties=species:S:1:pos:R:3:initial_magmoms:R:1:castep_labels:S:1:forces:R:3 n_minim_iter=6 energy=-47.536346885185 stress="0.00030016238271253124 0.0 -0.0 0.0 0.0003002287609484252 0.0 -0.0 0.0 -0.0003164250505065538" free_energy=-47.536346885185 pbc="T T T"
P        1.96414631       2.82951670       3.32783094       0.00000000 NULL       0.07974900       0.09202100      -0.05662600
P        3.89009260       1.07880463       0.85604972       0.00000000 NULL       0.03981800      -0.11507600      -0.05662800
P        1.41095833       0.28624225       5.79961217       0.00000000 NULL      -0.11956800       0.02305200      -0.05662600
P       -1.36370383       2.37219130       4.99361396       0.00000000 NULL      -0.02269900       0.00799800       0.01689900
P        0.31449743       4.18947010       2.52183274       0.00000000 NULL       0.01827500       0.01566100       0.01689700
P        1.04920641       1.82746577       7.46539518       0.00000000 NULL       0.00442400      -0.02365600       0.01689600
P        0.39122165       1.37989338       4.04207059       0.00000000 NULL       0.02327500      -0.13748600       0.03972800
P       -1.42232052       3.16580901       1.57028937       0.00000000 NULL      -0.13070400       0.04858600       0.03972800
P        1.03109887       3.84342478       6.51385181       0.00000000 NULL       0.10743100       0.08890000       0.03973100
9
Lattice="4.81398679198812 2.6008827420397537e-16 0.0 -2.40699339599406 4.16903485534447 0.0 0.0 0.0 7.447716551373614" Properties=species:S:1:pos:R:3:initial_magmoms:R:1:castep_labels:S:1:forces:R:3 n_minim_iter=7 energy=-47.54172376544 stress="-0.002879778546360225 0.0 0.0 0.0 -0.0028797116447794057 0.0 0.0 0.0 -0.0013615809728312997" free_energy=-47.54172376544 pbc="T T T"
P        1.94618178       2.81637506       3.34138931       0.00000000 NULL       0.06995700       0.08086100       0.00317200
P        3.87295485       1.07540447       0.85881713       0.00000000 NULL       0.03505000      -0.10101500       0.00317000
P        1.40184356       0.27725533       5.82396150       0.00000000 NULL      -0.10500800       0.02015300       0.00317300
P       -1.35629179       2.34700614       5.01272482       0.00000000 NULL      -0.02225100      -0.02504400       0.01066300
P        0.30371944       4.17011493       2.53015264       0.00000000 NULL      -0.01056600       0.03179300       0.01066100
P        1.05257235       1.82094864       7.49529701       0.00000000 NULL       0.03281500      -0.00674900       0.01066000
P        0.38953755       1.34949942       4.06337620       0.00000000 NULL       0.01171400      -0.06793300      -0.01383400
P       -1.43306139       3.15693573       1.58080402       0.00000000 NULL      -0.06468900       0.02382200      -0.01383400
P        1.04352384       3.83163456       6.54594838       0.00000000 NULL       0.05297700       0.04411200      -0.01383100
9
Lattice="4.798270028970159 6.275045657814713e-16 0.0 -2.39913501448508 4.155423739305656 0.0 0.0 0.0 7.457340746113866" Properties=species:S:1:pos:R:3:initial_magmoms:R:1:castep_labels:S:1:forces:R:3 n_minim_iter=8 energy=-47.54893873092 stress="-0.0034766783351305552 0.0 -0.0 0.0 -0.0034766783351305552 0.0 -0.0 0.0 -0.0005198035951682766" free_energy=-47.54893873092 pbc="T T T"
P        1.94627514       2.84036905       3.36540783       0.00000000 NULL       0.02126900       0.03140700      -0.02824200
P        3.88582919       1.04971550       0.87962758       0.00000000 NULL       0.01656400      -0.03412400      -0.02824300
P        1.36530071       0.26533919       5.85118808       0.00000000 NULL      -0.03783400       0.00271500      -0.02824100
P       -1.33831573       2.32004471       5.01591006       0.00000000 NULL      -0.06715100      -0.05523300       0.00422500
P        0.27924051       4.15441681       2.53012981       0.00000000 NULL      -0.01425900       0.08577200       0.00422400
P        1.05907522       1.83638596       7.50169031       0.00000000 NULL       0.08141000      -0.03053700       0.00422200
P        0.39253495       1.32538552       4.05221907       0.00000000 NULL       0.16334000      -0.03604600       0.02401800
P       -1.44758496       3.15278574       1.56643882       0.00000000 NULL      -0.11288700      -0.12343400       0.02401800
P        1.05505001       3.83267622       6.53799931       0.00000000 NULL      -0.05045300       0.15948000       0.02402000
9
Lattice="4.77080203905625 1.1551886074868346e-16 0.0 -2.385401019528125 4.131635762249316 0.0 0.0 0.0 7.460528962487794" Properties=species:S:1:pos:R:3:initial_magmoms:R:1:castep_labels:S:1:forces:R:3 n_minim_iter=9 energy=-47.570367620653 stress="-0.0060286513131198975 0.0 0.0 0.0 -0.006028583311864321 0.0 0.0 0.0 0.0005720945631636986" free_energy=-47.570367620653 pbc="T T T"
P        1.94980831       2.88965618       3.40637837       0.00000000 NULL      -0.07011900       0.05518700      -0.02035900
P        3.91301252       0.99822415       0.91953538       0.00000000 NULL       0.08285200       0.03313000      -0.02036000
P        1.29338223       0.24375544       5.89322136       0.00000000 NULL      -0.01273400      -0.08831800      -0.02035900
P       -1.30495331       2.25281151       5.01515695       0.00000000 NULL       0.01817400      -0.03549500      -0.07823100
P        0.21806763       4.13535273       2.52831397       0.00000000 NULL      -0.03982700       0.00200800      -0.07823200
P        1.08688568       1.87510730       7.50199994       0.00000000 NULL       0.02165400       0.03348700      -0.07823200
P        0.44084134       1.27459955       4.01731825       0.00000000 NULL       0.13043300       0.00002100       0.09859100
P       -1.50198610       3.11255619       1.53047526       0.00000000 NULL      -0.06519800      -0.11296800       0.09859100
P        1.06114476       3.87611579       6.50416123       0.00000000 NULL      -0.06523500       0.11294900       0.09859100
9
Lattice="4.765611315846313 1.8387531028736203e-15 0.0 -2.382805657923158 4.127140464085498 0.0 0.0 0.0 7.462266858815186" Properties=species:S:1:pos:R:3:initial_magmoms:R:1:castep_labels:S:1:forces:R:3 n_minim_iter=10 energy=-47.585880586721 stress="-0.004905960870274634 -0.0 0.0 -0.0 -0.004906029003888554 -0.0 0.0 -0.0 0.0022465015181542284" free_energy=-47.585880586721 pbc="T T T"
P        1.95729424       2.95437827       3.44393939       0.00000000 NULL      -0.14621100      -0.03826200       0.03986100
P        3.96272518       0.95488480       0.95651711       0.00000000 NULL       0.03996900       0.14575400       0.03986100
P        1.22839756       0.21787740       5.93136168       0.00000000 NULL       0.10624100      -0.10748900       0.03986200
P       -1.25522435       2.19914607       5.00414779       0.00000000 NULL      -0.12840100       0.06288600      -0.11023100
P        0.14932288       4.11462361       2.51672550       0.00000000 NULL       0.11866200       0.07975500      -0.11023000
P        1.10590147       1.94051125       7.49157007       0.00000000 NULL       0.00974100      -0.14264300      -0.11023200
P        0.49382010       1.22628445       3.99366493       0.00000000 NULL       0.20383000      -0.01498000       0.07037000
P       -1.56772222       3.08633749       1.50624264       0.00000000 NULL      -0.11488800      -0.16903200       0.07036900
P        1.07390212       3.94165899       6.48108721       0.00000000 NULL      -0.08894200       0.18401100       0.07037000
9
Lattice="4.7685384525111 2.912761689288623e-15 0.0 -2.3842692262555527 4.129675438797551 0.0 0.0 0.0 7.47327340631705" Properties=species:S:1:pos:R:3:initial_magmoms:R:1:castep_labels:S:1:forces:R:3 n_minim_iter=11 energy=-47.594275873885 stress="-0.002797220483798002 -0.0 0.0 -0.0 -0.002797220483798002 -0.0 0.0 -0.0 0.004356396046670978" free_energy=-47.594275873885 pbc="T T T"
P        1.95907721       2.97846534       3.47504468       0.00000000 NULL      -0.15616500      -0.05964300      -0.06799400
P        3.98415727       0.94383214       0.98395354       0.00000000 NULL       0.02642800       0.16506400      -0.06799300
P        1.20957320       0.20737796       5.96613581       0.00000000 NULL       0.12973400      -0.10541900      -0.06799600
P       -1.24598581       2.19321461       4.99486526       0.00000000 NULL      -0.03281800      -0.02051500      -0.04430400
P        0.13810325       4.11212350       2.50377413       0.00000000 NULL      -0.00135700       0.03867900      -0.04430400
P        1.10788256       1.95401277       7.48595640       0.00000000 NULL       0.03417600      -0.01816400      -0.04430200
P        0.52122654       1.20107739       3.99019365       0.00000000 NULL       0.16381300       0.02413000       0.11229800
P       -1.60471896       3.07774131       1.49910251       0.00000000 NULL      -0.06100800      -0.15393100       0.11229800
P        1.08349242       3.98053217       6.48128478       0.00000000 NULL      -0.10280400       0.12980000       0.11229600
9
Lattice="4.801853758126529 5.7232083020902294e-15 0.0 -2.4009268790632694 4.158527339795352 0.0 0.0 0.0 7.428802132572873" Properties=species:S:1:pos:R:3:initial_magmoms:R:1:castep_labels:S:1:forces:R:3 n_minim_iter=12 energy=-47.608439028099 stress="0.004298279682179714 0.0 -0.0 0.0 0.004298212270873887 -0.0 -0.0 -0.0 0.003545430218697028" free_energy=-47.608439028099 pbc="T T T"
P        1.95841936       2.98583356       3.44465142       0.00000000 NULL      -0.15856100      -0.04545000       0.04489300
P        4.00752491       0.96956964       0.96838404       0.00000000 NULL       0.03992100       0.16004500       0.04489300
P        1.23683636       0.20312414       5.92091880       0.00000000 NULL       0.11864200      -0.11459200       0.04489300
P       -1.25697689       2.20971812       4.96331239       0.00000000 NULL       0.05327600      -0.03153600      -0.03705700
P        0.14123359       4.14224220       2.48704502       0.00000000 NULL      -0.05394900      -0.03037300      -0.03705600
P        1.11574330       1.96509437       7.43957977       0.00000000 NULL       0.00067100       0.06190700      -0.03705500
P        0.53341938       1.19978098       3.97799312       0.00000000 NULL       0.09481400       0.12077400      -0.00783600
P       -1.62859576       3.09668211       1.50172574       0.00000000 NULL       0.05718600      -0.14249800      -0.00783600
P        1.09517638       4.02059159       6.45426050       0.00000000 NULL      -0.15200100       0.02172300      -0.00783800
9
Lattice="4.795894364924867 1.2457205309301304e-14 0.0 -2.3979471824624445 4.15336635389157 0.0 0.0 0.0 7.340638229547892" Properties=species:S:1:pos:R:3:initial_magmoms:R:1:castep_labels:S:1:forces:R:3 n_minim_iter=13 energy=-47.638346735648 stress="-0.000618114242097758 -0.0 0.0 -0.0 -0.000618114242097758 -0.0 0.0 -0.0 -0.0011389770511060035" free_energy=-47.638346735648 pbc="T T T"
P        1.89144850       3.00612546       3.43399373       0.00000000 NULL      -0.04640700      -0.05740100       0.01219400
P        4.05560395       1.01226117       0.98711432       0.00000000 NULL      -0.02650900       0.06889000       0.01219500
P        1.24678910       0.13497972       5.88087314       0.00000000 NULL       0.07291300      -0.01148700       0.01219400
P       -1.22940871       2.15098134       4.88624166       0.00000000 NULL       0.07094900       0.04249600       0.05051000
P        0.07956166       4.14257486       2.43936225       0.00000000 NULL       0.00132900      -0.08269200       0.05051000
P        1.14984705       2.01317651       7.33312107       0.00000000 NULL      -0.07227600       0.04019500       0.05051000
P        0.59428048       1.15245647       3.91872593       0.00000000 NULL       0.07996200       0.03935200      -0.06270400
P       -1.69703084       3.06247613       1.47184652       0.00000000 NULL      -0.00590100      -0.08892500      -0.06270400
P        1.10275036       4.09180011       6.36560534       0.00000000 NULL      -0.07406100       0.04957200      -0.06270500
9
Lattice="4.8462994673081115 2.810147024610689e-14 0.0 -2.4231497336540797 4.197018453035807 0.0 0.0 0.0 7.140353984092091" Properties=species:S:1:pos:R:3:initial_magmoms:R:1:castep_labels:S:1:forces:R:3 n_minim_iter=14 energy=-47.695240307567 stress="-0.004033605440393284 -6.88540070395904e-08 0.0 -6.88540070395904e-08 -0.004033605440393284 -0.0 0.0 -0.0 0.0022353453385403023" free_energy=-47.695240307567 pbc="T T T"
P        1.84060852       3.02245314       3.40189483       0.00000000 NULL       0.22664900      -0.11006700      -0.12946000
P        4.12036667       1.09177815       1.02177684       0.00000000 NULL      -0.20864600      -0.14125000      -0.12946000
P        1.30847401       0.08278717       5.78201283       0.00000000 NULL      -0.01800400       0.25131700      -0.12945900
P       -1.10115551       2.13950576       4.73449233       0.00000000 NULL      -0.12411500      -0.01755900       0.14088300
P       -0.01970564       4.08089422       2.35437434       0.00000000 NULL       0.04685200       0.11626600       0.14088400
P        1.12086115       2.17363693       7.11461033       0.00000000 NULL       0.07726600      -0.09870900       0.14088300
P        0.77866691       1.09543196       3.76863953       0.00000000 NULL       0.09854700      -0.25317000      -0.01142400
P       -1.86381128       2.97495715       1.38852153       0.00000000 NULL      -0.26852600       0.04124100      -0.01142400
P        1.08514437       4.32364780       6.14875752       0.00000000 NULL       0.16997800       0.21193000      -0.01142400
9
Lattice="4.8571903652899415 3.117047885502455e-14 0.0 -2.4285951826449974 4.206450247358095 0.0 0.0 0.0 7.096443023615661" Properties=species:S:1:pos:R:3:initial_magmoms:R:1:castep_labels:S:1:forces:R:3 n_minim_iter=15 energy=-47.703909392856 stress="-0.004766842143997074 -0.0 0.0 -0.0 -0.004766842143997074 0.0 0.0 0.0 0.0013304948535028222" free_energy=-47.703909392856 pbc="T T T"
P        1.83688346       3.02745687       3.39211819       0.00000000 NULL       0.23703100      -0.14416300      -0.14556800
P        4.13200801       1.10193407       1.02663718       0.00000000 NULL      -0.24336400      -0.13319300      -0.14556800
P        1.31689408       0.07705930       5.75759920       0.00000000 NULL       0.00633200       0.27735600      -0.14556900
P       -1.07913486       2.13428398       4.70464833       0.00000000 NULL      -0.16571500       0.03189100       0.12934700
P       -0.04068361       4.07386646       2.33916732       0.00000000 NULL       0.11047700       0.12756900       0.12934700
P        1.11981847       2.20475006       7.07012934       0.00000000 NULL       0.05524100      -0.15946000       0.12934700
P        0.81227572       1.07752189       3.73504760       0.00000000 NULL       0.09855800      -0.24042200       0.01622100
P       -1.90157171       2.96423790       1.36956659       0.00000000 NULL      -0.25749200       0.03485700       0.01622200
P        1.08929600       4.37114071       6.10052861       0.00000000 NULL       0.15893200       0.20556600       0.01622100
9
Lattice="4.904921846151253 4.10326203078123e-14 0.0 -2.452460923075662 4.247786922344235 0.0 0.0 0.0 6.965829374407476" Properties=species:S:1:pos:R:3:initial_magmoms:R:1:castep_labels:S:1:forces:R:3 n_minim_iter=16 energy=-47.751405981216 stress="-0.011537171554887073 -0.0 -0.0 -0.0 -0.011537171554887073 -0.0 -0.0 -0.0 -0.004952406148235896" free_energy=-47.751405981216 pbc="T T T"
P        1.86483958       2.99743090       3.33743661       0.00000000 NULL       0.36235400       0.02621200      -0.00144400
P        4.11589244       1.13407302       1.01549348       0.00000000 NULL      -0.15847700      -0.32691300      -0.00144200
P        1.37665075       0.11628300       5.65937973       0.00000000 NULL      -0.20387600       0.30070200      -0.00144400
P       -1.03137213       2.17169546       4.63241725       0.00000000 NULL      -0.20806500       0.10958100       0.00413800
P       -0.05603142       4.05513366       2.31047412       0.00000000 NULL       0.19893200       0.12539900       0.00413900
P        1.08740355       2.26874473       6.95436037       0.00000000 NULL       0.00913200      -0.23498000       0.00413700
P        0.88907353       1.05621146       3.64418897       0.00000000 NULL       0.02145200      -0.28817000      -0.00269400
P       -1.98229173       2.94972093       1.32224585       0.00000000 NULL      -0.26028800       0.12550700      -0.00269300
P        1.09321820       4.48964145       5.96613210       0.00000000 NULL       0.23883600       0.16266200      -0.00269600
9
Lattice="5.0496116553759265 6.43752001066534e-14 0.0 -2.52480582768802 4.373091972801513 0.0 0.0 0.0 6.712598014343384" Properties=species:S:1:pos:R:3:initial_magmoms:R:1:castep_labels:S:1:forces:R:3 n_minim_iter=17 energy=-47.961994890004 stress="-0.020280321210290237 0.0 -0.0 0.0 -0.02028038867283784 -0.0 -0.0 -0.0 -0.011141102423934127" free_energy=-47.961994890004 pbc="T T T"
P        2.03892754       2.96651620       3.24318632       0.00000000 NULL       0.27349200      -0.12568400       0.65332100
P        4.07442045       1.12407083       1.00565365       0.00000000 NULL      -0.24559200      -0.17400900       0.65332200
P        1.46106950       0.28250495       5.48071900       0.00000000 NULL      -0.02790000       0.29969300       0.65332100
P       -0.91521573       2.30023171       4.49796795       0.00000000 NULL      -0.42834800       0.45721100      -0.34889400
P       -0.07513887       4.01557619       2.26043528       0.00000000 NULL       0.61013100       0.14235400      -0.34889400
P        0.99035459       2.43037605       6.73550062       0.00000000 NULL      -0.18178400      -0.59956500      -0.34889400
P        1.08116003       0.99010622       3.45067958       0.00000000 NULL      -0.26008600       0.18234100      -0.30442800
P       -2.20792870       2.94172682       1.21314691       0.00000000 NULL       0.28795600       0.13407100      -0.30442800
P        1.12676868       4.81435091       5.68821225       0.00000000 NULL      -0.02786800      -0.31641200      -0.30442700
9
Lattice="5.112063142689302 7.306883240377926e-14 0.0 -2.5560315713447155 4.427176547319015 0.0 0.0 0.0 6.609897554537171" Properties=species:S:1:pos:R:3:initial_magmoms:R:1:castep_labels:S:1:forces:R:3 n_minim_iter=18 energy=-48.003956618955 stress="-0.013750435430041454 -6.684703660691033e-08 -0.0 -6.684703660691033e-08 -0.013750301735968239 0.0 -0.0 0.0 -0.014842983396344796" free_energy=-48.003956618955 pbc="T T T"
P        2.12136534       2.95018935       3.20127085       0.00000000 NULL       0.14232200      -0.01776800       0.87183000
P        4.05028783       1.11492560       0.99797167       0.00000000 NULL      -0.08654900      -0.11437200       0.87182500
P        1.49644155       0.36206160       5.40457004       0.00000000 NULL      -0.05577300       0.13213800       0.87183100
P       -0.88372454       2.36666243       4.44673491       0.00000000 NULL      -0.50752400       0.44311000      -0.42657300
P       -0.06457951       4.00917323       2.24343572       0.00000000 NULL       0.63750400       0.21797700      -0.42657200
P        0.94830405       2.47851743       6.65003409       0.00000000 NULL      -0.12998300      -0.66108400      -0.42657300
P        1.13904035       0.98313174       3.37259679       0.00000000 NULL      -0.38791900       0.33237800      -0.44525700
P       -2.27413469       2.94917280       1.16929760       0.00000000 NULL       0.48181000       0.16975800      -0.44525700
P        1.13509434       4.92204856       5.57589597       0.00000000 NULL      -0.09388900      -0.50213800      -0.44525300
9
Lattice="5.116768746791953 7.169487847061466e-14 0.0 -2.55838437339604 4.431251720012062 0.0 0.0 0.0 6.611706152738684" Properties=species:S:1:pos:R:3:initial_magmoms:R:1:castep_labels:S:1:forces:R:3 n_minim_iter=19 energy=-48.08904621156 stress="-0.008545692037422949 6.670589366499844e-08 -0.0 6.670589366499844e-08 -0.008545692037422949 -0.0 -0.0 -0.0 -0.013689116674356322" free_energy=-48.08904621156 pbc="T T T"
P        2.16339485       2.94614317       3.19533027       0.00000000 NULL      -0.01998900      -0.06352800       0.95390800
P        4.02812178       1.08462524       0.99142822       0.00000000 NULL      -0.04502200       0.04907500       0.95390900
P        1.48363649       0.40048332       5.39923232       0.00000000 NULL       0.06501100       0.01445300       0.95390800
P       -0.91547638       2.38482643       4.46266435       0.00000000 NULL      -0.39655200       0.26810400      -0.41699400
P       -0.03532591       4.03166431       2.25876229       0.00000000 NULL       0.43046100       0.20937200      -0.41699500
P        0.95080229       2.44601270       6.66656640       0.00000000 NULL      -0.03391000      -0.47747600      -0.41699400
P        1.10382683       0.99491444       3.36562390       0.00000000 NULL      -0.11748100       0.41452600      -0.53691300
P       -2.24867661       2.97785243       1.16172185       0.00000000 NULL       0.41773000      -0.10552200      -0.53691300
P        1.14484978       4.88973658       5.56952595       0.00000000 NULL      -0.30025000      -0.30900400      -0.53691500
9
Lattice="5.144276571744455 7.34683854609865e-14 0.0 -2.5721382858722923 4.455074195223784 0.0 0.0 0.0 6.579595592103867" Properties=species:S:1:pos:R:3:initial_magmoms:R:1:castep_labels:S:1:forces:R:3 n_minim_iter=20 energy=-48.271608310076 stress="-0.0061981377114118255 6.631648579022529e-08 0.0 6.631648579022529e-08 -0.006198204027897616 0.0 0.0 0.0 0.0023836797652438575" free_energy=-48.271608310076 pbc="T T T"
P        2.24622429       2.95556429       3.21604558       0.00000000 NULL      -0.07577100      -0.06935200       0.35272500
P        4.00861989       1.03200475       1.02284705       0.00000000 NULL      -0.02217600       0.10029700       0.35272200
P        1.46157067       0.46750516       5.40924411       0.00000000 NULL       0.09794800      -0.03094500       0.35272500
P       -0.96703323       2.42369196       4.45147397       0.00000000 NULL      -0.23630200       0.03704500      -0.33859900
P        0.01035713       4.08070356       2.25827544       0.00000000 NULL       0.15023400       0.18611800      -0.33860000
P        0.95667609       2.40575288       6.64467250       0.00000000 NULL       0.08606800      -0.22316400      -0.33859900
P        1.11900625       1.02855170       3.30256087       0.00000000 NULL       0.05134300       0.25288800      -0.01412500
P       -2.24088952       2.97171051       1.10936234       0.00000000 NULL       0.19333500      -0.17090800      -0.01412700
P        1.12188326       4.90988619       5.49575940       0.00000000 NULL      -0.24467800      -0.08197800      -0.01412200
9
Lattice="5.178207475312224 7.676849439953618e-14 0.0 -2.58910373765618 4.484459219686829 0.0 0.0 0.0 6.517308195203207" Properties=species:S:1:pos:R:3:initial_magmoms:R:1:castep_labels:S:1:forces:R:3 n_minim_iter=21 energy=-48.337157669645 stress="-0.003317532690109866 -0.0 -0.0 -0.0 -0.003317532690109866 0.0 -0.0 0.0 0.0018159606222571993" free_energy=-48.337157669645 pbc="T T T"
P        2.26248212       2.98446366       3.19989685       0.00000000 NULL      -0.04572200      -0.08261600       0.22661100
P        4.04248402       1.03286040       1.02746079       0.00000000 NULL      -0.04868700       0.08090500       0.22661200
P        1.46234507       0.46713516       5.37233292       0.00000000 NULL       0.09440800       0.00171300       0.22661000
P       -1.01421568       2.43885136       4.40137317       0.00000000 NULL      -0.08026100      -0.05633300      -0.22955300
P        0.03011133       4.14337009       2.22893711       0.00000000 NULL      -0.00865600       0.09767600      -0.22955200
P        0.98410435       2.38669700       6.57380924       0.00000000 NULL       0.08891900      -0.04134300      -0.22955300
P        1.13684264       1.06655703       3.26495876       0.00000000 NULL       0.04614600       0.07189500       0.00294200
P       -2.23385958       2.96664610       1.09252269       0.00000000 NULL       0.03919100      -0.07591100       0.00294300
P        1.09701694       4.93571531       5.43739482       0.00000000 NULL      -0.08533700       0.00401400       0.00294000
