7
Lattice="4.343099999999996 2.46698890104772e-16 -3.580721257768672e-16 0.37665845681104265 4.451402817428763 -9.059287702928081e-16 0.7865502764913695 0.6486800524743469 7.699774748164604" Properties=species:S:1:pos:R:3:initial_magmoms:R:1:castep_labels:S:1 n_minim_iter=1 pbc="T T T"
P        1.07555407       4.57741234       1.72715649       0.00000000 NULL
P        4.19084133       0.99574781       3.38888877       0.00000000 NULL
P        2.48957732       3.13393399       2.19345331       0.00000000 NULL
P        4.69989260       2.93865412       2.62780146       0.00000000 NULL
P        3.65499199       2.00129809       5.30386356       0.00000000 NULL
P        1.65935930       2.11209007       3.99474093       0.00000000 NULL
P        4.56831590       4.24906946       7.68883722       0.00000000 NULL
7
Lattice="4.347110745133134 -0.001302204130204024 0.00010128930108562475 0.3756716146794898 4.457202104423773 -0.0010352198156850217 0.7872617138639023 0.647499919452663 7.703629975739464" Properties=species:S:1:pos:R:3:initial_magmoms:R:1:castep_labels:S:1 n_minim_iter=2 pbc="T T T"
P        1.07523473       4.58300895       1.72648416       0.00000000 NULL
P        4.19442873       0.99492003       3.39067982       0.00000000 NULL
P        2.49126930       3.13671226       2.19375338       0.00000000 NULL
P        4.70305053       2.94051327       2.62855288       0.00000000 NULL
P        3.65785888       2.00162802       5.30629337       0.00000000 NULL
P        1.66049949       2.11344366       3.99660770       0.00000000 NULL
P        4.57144876       4.25154141       7.69214770       0.00000000 NULL
7
Lattice="4.5065160394216655 -0.05553277419430565 0.004059664243232114 0.33391324848486437 4.691420664557533 -0.04238290704228624 0.8150484525264345 0.6003808104194861 7.854657688025506" Properties=species:S:1:pos:R:3:initial_magmoms:R:1:castep_labels:S:1 n_minim_iter=3 pbc="T T T"
P        1.05979788       4.80932424       1.69860772       0.00000000 NULL
P        4.33642021       0.96022119       3.46096441       0.00000000 NULL
P        2.55710951       3.24808136       2.20479500       0.00000000 NULL
P        4.82637989       3.01437115       2.65746461       0.00000000 NULL
P        3.77050880       2.01421731       5.40121841       0.00000000 NULL
P        1.70471235       2.16783923       4.06969579       0.00000000 NULL
P        4.69346059       4.35051640       7.82159467       0.00000000 NULL
7
Lattice="4.516563492941415 -0.11301942890487408 -0.0116335546395032 0.27586443579219094 4.793076832052562 -0.030279678148411853 0.780459824744218 0.6287997738231748 7.835654823635338" Properties=species:S:1:pos:R:3:initial_magmoms:R:1:castep_labels:S:1 n_minim_iter=4 pbc="T T T"
P        0.99572314       4.91207450       1.68828511       0.00000000 NULL
P        4.32055662       0.93971385       3.44652065       0.00000000 NULL
P        2.52224176       3.29290588       2.19361273       0.00000000 NULL
P        4.77803672       3.03006159       2.64254790       0.00000000 NULL
P        3.73147775       2.03023648       5.38094839       0.00000000 NULL
P        1.66885015       2.20999754       4.06677757       0.00000000 NULL
P        4.62105773       4.41467508       7.81207773       0.00000000 NULL
7
Lattice="4.492905233442917 -0.21218594069316538 -0.03630170955979278 0.1721732535761407 4.930071652720753 0.012530477994952941 0.7176302824911196 0.7098082405633628 7.7192816705402585" Properties=species:S:1:pos:R:3:initial_magmoms:R:1:castep_labels:S:1 n_minim_iter=5 pbc="T T T"
P        0.87602458       5.05488270       1.67781725       0.00000000 NULL
P        4.25598235       0.91465553       3.38855813       0.00000000 NULL
P        2.43767992       3.35385840       2.16563424       0.00000000 NULL
P        4.65386100       3.04426674       2.60396653       0.00000000 NULL
P        3.63248673       2.06659367       5.29690299       0.00000000 NULL
P        1.59302339       2.28515875       4.02618856       0.00000000 NULL
P        4.45742251       4.52649455       7.73264308       0.00000000 NULL
7
Lattice="4.480987244298372 -0.4775344636849753 -0.07404531578404257 -0.10082579646778561 5.285800236505217 0.17184139596019626 0.6089250586682002 0.9981734000102468 7.295723989353769" Properties=species:S:1:pos:R:3:initial_magmoms:R:1:castep_labels:S:1 n_minim_iter=6 pbc="T T T"
P        0.58268364       5.43379688       1.68448020       0.00000000 NULL
P        4.15099604       0.88446080       3.21032492       0.00000000 NULL
P        2.24979929       3.52671174       2.10023819       0.00000000 NULL
P        4.39870765       3.09654853       2.51607538       0.00000000 NULL
P        3.44577810       2.20992584       5.03075514       0.00000000 NULL
P        1.43892854       2.52201147       3.88224004       0.00000000 NULL
P        4.12186598       4.89342308       7.46419765       0.00000000 NULL
7
Lattice="4.80551533595061 -0.6497618418055636 -0.08024705756040419 -0.2492030353088881 5.419360019301198 0.20321903360132038 0.6309796235682115 1.0438275725480974 7.270626110892457" Properties=species:S:1:pos:R:3:initial_magmoms:R:1:castep_labels:S:1 n_minim_iter=7 pbc="T T T"
P        0.49190243       5.55543116       1.68102604       0.00000000 NULL
P        4.40044003       0.79094485       3.20795396       0.00000000 NULL
P        2.32165639       3.54269722       2.08812495       0.00000000 NULL
P        4.59368288       3.02064180       2.51854839       0.00000000 NULL
P        3.62844269       2.16642854       5.01444981       0.00000000 NULL
P        1.50084556       2.55490228       3.90607937       0.00000000 NULL
P        4.28910366       4.91049549       7.48358597       0.00000000 NULL
7
Lattice="4.630965830630658 -0.6454779647526406 -0.10496277948787343 -0.25995026307892205 5.330915931073269 0.21440030887271447 0.5561900521424682 1.0547091478100148 7.068029381143547" Properties=species:S:1:pos:R:3:initial_magmoms:R:1:castep_labels:S:1 n_minim_iter=8 pbc="T T T"
P        0.44414246       5.46690881       1.64222882       0.00000000 NULL
P        4.21220376       0.79183360       3.10088935       0.00000000 NULL
P        2.21608512       3.48648519       2.02590888       0.00000000 NULL
P        4.38508611       2.97595583       2.43406112       0.00000000 NULL
P        3.45246193       2.14446351       4.85474138       0.00000000 NULL
P        1.41626224       2.52544849       3.80118463       0.00000000 NULL
P        4.06855674       4.85386678       7.27393990       0.00000000 NULL
7
Lattice="4.677402701056277 -0.6563318771767354 -0.11930643127814149 -0.2670475660171694 5.366749628983408 0.2170883144024389 0.5375492952961328 1.0649037891673034 7.107554534911168" Properties=species:S:1:pos:R:3:initial_magmoms:R:1:castep_labels:S:1 n_minim_iter=9 pbc="T T T"
P        0.44305187       5.50511568       1.64724311       0.00000000 NULL
P        4.23930632       0.79341673       3.10764950       0.00000000 NULL
P        2.22900909       3.50840031       2.02979040       0.00000000 NULL
P        4.41069242       2.99099092       2.43649683       0.00000000 NULL
P        3.46838334       2.15611970       4.87159617       0.00000000 NULL
P        1.42085231       2.54167675       3.82456008       0.00000000 NULL
P        4.08342361       4.88249508       7.30480798       0.00000000 NULL
7
Lattice="4.67982588443385 -0.6644733976647299 -0.1290387812026883 -0.2751819572876525 5.365417481341763 0.22371707153586604 0.5195178917891718 1.0762641117837546 7.092828736293199" Properties=species:S:1:pos:R:3:initial_magmoms:R:1:castep_labels:S:1 n_minim_iter=10 pbc="T T T"
P        0.43438057       5.50530607       1.64637662       0.00000000 NULL
P        4.22937590       0.79302645       3.09501704       0.00000000 NULL
P        2.22085035       3.50671346       2.02400186       0.00000000 NULL
P        4.39463182       2.98712809       2.42711983       0.00000000 NULL
P        3.45460045       2.15690245       4.85486895       0.00000000 NULL
P        1.41281120       2.54468530       3.82064661       0.00000000 NULL
P        4.06269006       4.88496373       7.28850601       0.00000000 NULL
7
Lattice="4.700569362661652 -0.684336999064365 -0.149436577345681 -0.29374189943414836 5.365087048188899 0.23876440474055374 0.48414505461692264 1.1019575585842243 7.067679347163381" Properties=species:S:1:pos:R:3:initial_magmoms:R:1:castep_labels:S:1 n_minim_iter=11 pbc="T T T"
P        0.41855630       5.50838448       1.64624383       0.00000000 NULL
P        4.22220138       0.79109835       3.07163072       0.00000000 NULL
P        2.21033012       3.50464033       2.01386586       0.00000000 NULL
P        4.37337936       2.97919685       2.41061695       0.00000000 NULL
P        3.43811731       2.15806448       4.82374556       0.00000000 NULL
P        1.40169255       2.55239033       3.81679942       0.00000000 NULL
P        4.03379224       4.89075644       7.26071127       0.00000000 NULL
7
Lattice="4.775240413227229 -0.7361486311903209 -0.1961165500889094 -0.34036964517948576 5.342562964494216 0.2843057989485345 0.4071719450520234 1.1757242054481434 6.981574635411614" Properties=species:S:1:pos:R:3:initial_magmoms:R:1:castep_labels:S:1 n_minim_iter=12 pbc="T T T"
P        0.39083596       5.49550645       1.64744571       0.00000000 NULL
P        4.22734062       0.78565802       3.00962186       0.00000000 NULL
P        2.19411670       3.49144998       1.98816486       0.00000000 NULL
P        4.33225402       2.95266200       2.37372486       0.00000000 NULL
P        3.42475382       2.15352346       4.73290004       0.00000000 NULL
P        1.38848024       2.56853295       3.80182242       0.00000000 NULL
P        3.99627504       4.88961154       7.17593332       0.00000000 NULL
7
Lattice="4.804788550973793 -0.7461945561532273 -0.22193305897908627 -0.3481034995043453 5.334088551309003 0.3280798737892769 0.36525331585719034 1.252387515468928 6.956840230756975" Properties=species:S:1:pos:R:3:initial_magmoms:R:1:castep_labels:S:1 n_minim_iter=13 pbc="T T T"
P        0.40887421       5.50093443       1.66648606       0.00000000 NULL
P        4.22778034       0.80897070       2.99050130       0.00000000 NULL
P        2.17584716       3.52677627       1.98744084       0.00000000 NULL
P        4.28050372       2.98316744       2.38253855       0.00000000 NULL
P        3.42965834       2.17743966       4.70068307       0.00000000 NULL
P        1.38140676       2.60636449       3.82066490       0.00000000 NULL
P        3.99563717       4.92576020       7.16174254       0.00000000 NULL
