60
Lattice="12.552661045900411 0.0 0.0 0.0 10.512807176702397 0.0 0.0 0.0 10.512807176702397" Properties=species:S:1:pos:R:3:initial_magmoms:R:1:castep_labels:S:1:forces:R:3 n_minim_iter=3 energy=-321.412301619769 stress="-0.00010317817208935174 -0.0 0.0 -0.0 5.0277193679141294e-05 -0.0 0.0 -0.0 5.0277193679141294e-05" free_energy=-321.412301619769 pbc="T T T"
P        8.26453029       3.28412100       6.05446200       0.00000000 NULL       0.00049200      -0.00206400       0.00195200
P        1.98819976       7.22868618       4.45834517       0.00000000 NULL       0.00049200       0.00206400      -0.00195200
P        5.12636502       4.45834517       3.28412100       0.00000000 NULL       0.00049200      -0.00195200      -0.00206400
P       11.40269555       6.05446200       7.22868618       0.00000000 NULL       0.00049200       0.00195200       0.00206400
P        5.29873900       1.28308396       8.65130065       0.00000000 NULL       0.00857300      -0.00066500      -0.00227900
P       11.57506952       9.22972321       1.86150652       0.00000000 NULL       0.00857300       0.00066500       0.00227900
P        2.16057374       1.86150652       1.28308396       0.00000000 NULL       0.00857300       0.00227900      -0.00066500
P        8.43690426       8.65130065       9.22972321       0.00000000 NULL       0.00857300      -0.00227900       0.00066500
P        7.78885454       5.74595601       0.85815494       0.00000000 NULL      -0.00229600       0.00062600      -0.00473000
P        1.51252402       4.76685117       9.65465224       0.00000000 NULL      -0.00229600      -0.00062600       0.00473000
P        4.65068928       9.65465224       5.74595601       0.00000000 NULL      -0.00229600       0.00473000       0.00062600
P       10.92701981       0.85815494       4.76685117       0.00000000 NULL      -0.00229700      -0.00473000      -0.00062600
P        8.58853433       1.38067515       8.83544569       0.00000000 NULL       0.00179600      -0.00141600       0.00147300
P        2.31220381       9.13213203       1.67736149       0.00000000 NULL       0.00179600       0.00141600      -0.00147300
P        5.45036907       1.67736149       1.38067515       0.00000000 NULL       0.00179600      -0.00147300      -0.00141600
P       11.72669959       8.83544569       9.13213203       0.00000000 NULL       0.00179600       0.00147300       0.00141600
P        3.21805488       1.83926080       8.21852602       0.00000000 NULL      -0.00499300      -0.00013300       0.00184800
P        9.49438541       8.67354638       2.29428116       0.00000000 NULL      -0.00499300       0.00013300      -0.00184800
P       12.63255067       2.29428116       1.83926080       0.00000000 NULL      -0.00499300      -0.00184800      -0.00013300
P        6.35622015       8.21852602       8.67354638       0.00000000 NULL      -0.00499300       0.00184800       0.00013300
P        2.46094761       5.88617115      11.70773676       0.00000000 NULL      -0.00346500      -0.00180600      -0.00055500
P        8.73727814       4.62663603      -1.19492959       0.00000000 NULL      -0.00346500       0.00180600       0.00055500
P       11.87544340      -1.19492959       5.88617115       0.00000000 NULL      -0.00346600       0.00055500      -0.00180600
P        5.59911287      11.70773676       4.62663603       0.00000000 NULL      -0.00346500      -0.00055500       0.00180600
P        7.03560544      10.24686472       3.70069889       0.00000000 NULL       0.00359500       0.00306300       0.00017100
P        0.75927491       0.26594246       6.81210829       0.00000000 NULL       0.00359600      -0.00306300      -0.00017100
P        3.89744018       6.81210829      10.24686472       0.00000000 NULL       0.00359500      -0.00017100       0.00306300
P       10.17377070       3.70069889       0.26594246       0.00000000 NULL       0.00359600       0.00017100      -0.00306300
P        5.82128572       8.45177213       4.30206537       0.00000000 NULL      -0.00192100       0.00392200       0.00090500
P       -0.45504480       2.06103504       6.21074180       0.00000000 NULL      -0.00192100      -0.00392200      -0.00090500
P        2.68312046       6.21074180       8.45177213       0.00000000 NULL      -0.00192100      -0.00090500       0.00392200
P        8.95945098       4.30206537       2.06103504       0.00000000 NULL      -0.00192100       0.00090500      -0.00392200
P        6.48063059       2.73613728       3.03362457       0.00000000 NULL       0.00043700      -0.00521100       0.00082200
P        0.20430006       7.77666990       7.47918261       0.00000000 NULL       0.00043700       0.00521100      -0.00082200
P        3.34246533       7.47918261       2.73613728       0.00000000 NULL       0.00043700      -0.00082200      -0.00521100
P        9.61879585       3.03362457       7.77666990       0.00000000 NULL       0.00043700       0.00082200       0.00521100
P        6.27530405       2.62672382      10.12319586       0.00000000 NULL       0.00005500       0.00124600       0.00207600
P       -0.00102647       7.88608336       0.38961132       0.00000000 NULL       0.00005500      -0.00124600      -0.00207600
P        3.13713879       0.38961132       2.62672382       0.00000000 NULL       0.00005500      -0.00207600       0.00124600
P        9.41346932      10.12319586       7.88608336       0.00000000 NULL       0.00005500       0.00207600      -0.00124600
P        5.19471256       9.85015510       9.71573091       0.00000000 NULL       0.00753300      -0.00014600       0.00227000
P       11.47104308       0.66265208       0.79707627       0.00000000 NULL       0.00753300       0.00014600      -0.00227000
P        2.05654729       0.79707627       9.85015510       0.00000000 NULL       0.00753300      -0.00227000      -0.00014600
P        8.33287782       9.71573091       0.66265208       0.00000000 NULL       0.00753300       0.00227000       0.00014600
P        0.69629276       8.95515866       4.09977055       0.00000000 NULL      -0.00606200       0.00111300       0.00074300
P        6.97262328       1.55764852       6.41303662       0.00000000 NULL      -0.00606200      -0.00111300      -0.00074300
P       10.11078854       6.41303662       8.95515866       0.00000000 NULL      -0.00606200      -0.00074300       0.00111300
P        3.83445802       4.09977055       1.55764852       0.00000000 NULL      -0.00606200       0.00074300      -0.00111300
P       12.42383786      10.97111024       9.21506446       0.00000000 NULL      -0.00268800       0.00346100      -0.00197700
P        6.14750734      -0.45830306       1.29774272       0.00000000 NULL      -0.00268800      -0.00346100       0.00197700
P        9.28567260       1.29774272      10.97111024       0.00000000 NULL      -0.00268800       0.00197700       0.00346100
P        3.00934208       9.21506446      -0.45830306       0.00000000 NULL      -0.00268800      -0.00197700      -0.00346100
P        8.12858751      10.22290946       6.00618567       0.00000000 NULL       0.00080000       0.00168900       0.00057000
P        1.85225699       0.28989771       4.50662151       0.00000000 NULL       0.00080000      -0.00168800      -0.00057000
P        4.99042225       4.50662151      10.22290946       0.00000000 NULL       0.00079900      -0.00057000       0.00168900
P       11.26675277       6.00618567       0.28989771       0.00000000 NULL       0.00080000       0.00057000      -0.00168800
P        3.41667846       4.03209017       8.73817564       0.00000000 NULL      -0.00185400      -0.00531800      -0.00337500
P        9.69300899       6.48071701       1.77463153       0.00000000 NULL      -0.00185500       0.00531700       0.00337500
P       12.83117425       1.77463153       4.03209017       0.00000000 NULL      -0.00185400       0.00337600      -0.00531800
P        6.55484373       8.73817564       6.48071701       0.00000000 NULL      -0.00185500      -0.00337500       0.00531700
