15
Lattice="6.421174927424549 1.46744931290225e-15 0.0 -3.210587463712276 5.560900609293362 0.0 0.0 0.0 8.511898335678682" Properties=species:S:1:pos:R:3:initial_magmoms:R:1:castep_labels:S:1:forces:R:3 n_minim_iter=13 energy=-79.795047566127 stress="2.293225158853351e-05 0.0 0.0 0.0 2.293225158853351e-05 -0.0 0.0 -0.0 4.869402058971248e-06" free_energy=-79.795047566127 pbc="T T T"
P        1.50232840       5.28227763       7.43936410       0.00000000 NULL      -0.00041400       0.00204200       0.00155300
P        0.61283495       1.61870723       1.76476521       0.00000000 NULL       0.00197500      -0.00066300       0.00155500
P       -2.11516336       4.22081636       4.60206465       0.00000000 NULL      -0.00156000      -0.00137800       0.00155400
P        0.00118018       4.74161814       5.07194916       0.00000000 NULL      -0.00131700       0.00013700       0.00091500
P        0.89518421       3.18906948       7.90924861       0.00000000 NULL       0.00077500       0.00107300       0.00091600
P       -0.89636439       3.19111361       2.23464972       0.00000000 NULL       0.00054100      -0.00120700       0.00091700
P        0.84887931       1.09907933       3.97665221       0.00000000 NULL       0.00112900       0.00117200      -0.00201100
P        3.73797842       4.27620990       6.81395166       0.00000000 NULL       0.00045100      -0.00156300      -0.00201200
P        5.04490465       0.18561139       1.13935277       0.00000000 NULL      -0.00158100       0.00039100      -0.00201000
P        2.35166813       2.46916031       6.40429250       0.00000000 NULL      -0.00270000       0.00095300       0.00067800
P        4.17310895       2.28971612       0.72969361       0.00000000 NULL       0.00217500       0.00186100       0.00068000
P        3.10698531       0.80202419       3.56699306       0.00000000 NULL       0.00052300      -0.00281900       0.00067900
P       -1.15288023       2.55481147       7.27077259       0.00000000 NULL       0.00171000      -0.00406800      -0.00113900
P       -0.42161573       5.28191844       1.59617370       0.00000000 NULL      -0.00437600       0.00055600      -0.00113700
P        1.57449594       3.28507132       4.43347314       0.00000000 NULL       0.00266900       0.00351400      -0.00113800
