20
Lattice="3.470525704762267 0.0 0.0 0.0 11.909438119636814 0.0 0.0 0.0 10.403541416271164" Properties=species:S:1:pos:R:3:initial_magmoms:R:1:castep_labels:S:1:forces:R:3 n_minim_iter=8 energy=-105.023744873785 stress="2.3767480297676242e-05 -0.0 0.0 -0.0 6.600010673659996e-05 0.0 0.0 0.0 -1.3232579539508591e-05" free_energy=-105.023744873785 pbc="T T T"
P        3.47051195       9.95028530      10.02584003       0.00000000 NULL      -0.00226300       0.00440600       0.00114700
P        0.00001376       1.95915282      10.02584003       0.00000000 NULL       0.00226300      -0.00440600       0.00114700
P        1.73527661       3.99556624       4.82406933       0.00000000 NULL       0.00226300       0.00440600       0.00114900
P        1.73524910       7.91387188       4.82406933       0.00000000 NULL      -0.00226300      -0.00440600       0.00114900
P        1.73518745       1.08590168       8.99967163       0.00000000 NULL       0.00244500      -0.00228600      -0.00522600
P        1.73533826      10.82353644       8.99967163       0.00000000 NULL      -0.00244500       0.00228600      -0.00522600
P        3.47060111       7.04062074       3.79790093       0.00000000 NULL      -0.00244500      -0.00228700      -0.00522500
P       -0.00007540       4.86881738       3.79790093       0.00000000 NULL       0.00244600       0.00228700      -0.00522500
P        3.47916872       0.98213511       5.80208935       0.00000000 NULL      -0.00936900      -0.00182900      -0.00040000
P       -0.00864301      10.92730301       5.80208935       0.00000000 NULL       0.00936900       0.00182900      -0.00040000
P        1.72661984       6.93685417       0.60031864       0.00000000 NULL       0.00936800      -0.00183200      -0.00040000
P        1.74390587       4.97258395       0.60031864       0.00000000 NULL      -0.00936800       0.00183200      -0.00040000
P        1.73688897       4.82707183       6.87586155       0.00000000 NULL      -0.00335500      -0.00071500       0.00704300
P        1.73363673       7.08236629       6.87586155       0.00000000 NULL       0.00335500       0.00071500       0.00704300
P       -0.00162612      10.78179089       1.67409084       0.00000000 NULL       0.00335700      -0.00071500       0.00704500
P        3.47215183       1.12764723       1.67409084       0.00000000 NULL      -0.00335700       0.00071500       0.00704500
P        3.47210461       4.18309283       8.02795606       0.00000000 NULL       0.00061400       0.00466600      -0.00256700
P       -0.00157890       7.72634529       8.02795606       0.00000000 NULL      -0.00061400      -0.00466600      -0.00256700
P        1.73368395      10.13781189       2.82618535       0.00000000 NULL      -0.00061600       0.00466600      -0.00256600
P        1.73684176       1.77162623       2.82618535       0.00000000 NULL       0.00061600      -0.00466600      -0.00256600
