24
Lattice="5.09659940247633 0.0 0.0 0.0 9.914573560922124 0.0 0.0 0.0 11.038376339979274" Properties=species:S:1:pos:R:3:initial_magmoms:R:1:castep_labels:S:1:forces:R:3 n_minim_iter=1 energy=-130.585599055244 stress="1.8394485889211065e-05 0.0 0.0 0.0 -4.3045965516565074e-05 0.0 0.0 0.0 -1.9183333237286394e-05" free_energy=-130.585599055244 pbc="T T T"
P        1.18594894       3.59671564       0.97957881       0.00000000 NULL       0.00170100       0.00605200      -0.00515100
P        3.91065046       8.55400242      10.05879753       0.00000000 NULL      -0.00170100       0.00605200       0.00515100
P        3.91065046       1.36057114       0.97957881       0.00000000 NULL      -0.00170100      -0.00605200      -0.00515100
P        1.18594894       6.31785792      10.05879753       0.00000000 NULL       0.00170100      -0.00605200       0.00515100
P        4.30828887       3.30839827       2.13541318       0.00000000 NULL      -0.00239400       0.00465200       0.00764100
P        0.78831054       8.26568505       8.90296316       0.00000000 NULL       0.00239400       0.00465300      -0.00764100
P        0.78831054       1.64888851       2.13541318       0.00000000 NULL       0.00239400      -0.00465300       0.00764100
P        4.30828887       6.60617529       8.90296316       0.00000000 NULL      -0.00239400      -0.00465200      -0.00764100
P        3.84020946       6.41165183       4.90239325       0.00000000 NULL      -0.00119400       0.00166800      -0.00085900
P        1.25638994       1.45436505       6.13598309       0.00000000 NULL       0.00119400       0.00166800       0.00085900
P        1.25638994       8.46020851       4.90239325       0.00000000 NULL       0.00119400      -0.00166800      -0.00085900
P        3.84020946       3.50292173       6.13598309       0.00000000 NULL      -0.00119400      -0.00166800       0.00085900
P        4.36745097       1.59219426       4.97377693       0.00000000 NULL       0.00036100       0.00006800      -0.00191100
P        0.72914843       6.54948105       6.06459941       0.00000000 NULL      -0.00036100       0.00006800       0.00191100
P        0.72914843       3.36509252       4.97377693       0.00000000 NULL      -0.00036100      -0.00006900      -0.00191100
P        4.36745097       8.32237930       6.06459941       0.00000000 NULL       0.00036100      -0.00006800       0.00191100
P        4.36863055       8.32910556       3.75516815       0.00000000 NULL       0.00163300      -0.00041700      -0.00442500
P        0.72796885       3.37181878       7.28320819       0.00000000 NULL      -0.00163300      -0.00041700       0.00442500
P        0.72796885       6.54275478       3.75516815       0.00000000 NULL      -0.00163300       0.00041700      -0.00442500
P        4.36863055       1.58546800       7.28320819       0.00000000 NULL       0.00163300       0.00041700       0.00442500
P        0.78869826       1.64139990      10.86711028       0.00000000 NULL      -0.00174700       0.00148000      -0.00075600
P        4.30790114       6.59868668       0.17126606       0.00000000 NULL       0.00174700       0.00148100       0.00075600
P        4.30790114       3.31588688      10.86711028       0.00000000 NULL       0.00174700      -0.00148100      -0.00075600
P        0.78869826       8.27317366       0.17126606       0.00000000 NULL      -0.00174700      -0.00148000       0.00075600
