64
Lattice="8.101737577961934 0.0 0.0 0.0 13.661048535752258 0.0 0.0 0.0 11.820676017016922" Properties=species:S:1:pos:R:3:initial_magmoms:R:1:castep_labels:S:1:forces:R:3 n_minim_iter=19 energy=-344.914994824859 stress="-5.3810633120648954e-05 0.0 0.0 0.0 -7.903436739595315e-06 -0.0 0.0 -0.0 -5.0791428563453445e-05" free_energy=-344.914994824859 pbc="T T T"
P        1.05704824       4.77897684       6.97569978       0.00000000 NULL      -0.00118500      -0.00067400       0.00626800
P        1.05704824       8.88207170       4.84497624       0.00000000 NULL      -0.00118500       0.00067400      -0.00626800
P        1.05704824      11.60950111      10.75531425       0.00000000 NULL      -0.00118500      -0.00067400      -0.00626800
P        1.05704824       2.05154743       1.06536177       0.00000000 NULL      -0.00118500       0.00067400       0.00626800
P        1.11389454      12.72043262      12.67727279       0.00000000 NULL      -0.00644300       0.00134000       0.00367700
P        1.11389454       0.94061591      -0.85659678       0.00000000 NULL      -0.00644300      -0.00134000      -0.00367700
P        1.11389454       5.88990836       5.05374123       0.00000000 NULL      -0.00644300       0.00133900      -0.00367700
P        1.11389454       7.77114018       6.76693479       0.00000000 NULL      -0.00644300      -0.00133900       0.00367700
P        3.35144245       5.80483261       4.79322384       0.00000000 NULL       0.00243500       0.00040200      -0.00053000
P        3.35144245       7.85621593       7.02745217       0.00000000 NULL       0.00243500      -0.00040200       0.00053000
P        3.35144245      12.63535687      12.93779018       0.00000000 NULL       0.00243500       0.00040200       0.00053000
P        3.35144245       1.02569166      -1.11711417       0.00000000 NULL       0.00243500      -0.00040200      -0.00053000
P        6.45982641       6.64452274       9.21015218       0.00000000 NULL      -0.00148500       0.00079500      -0.00280700
P        6.45982641       7.01652579       2.61052383       0.00000000 NULL      -0.00148500      -0.00079500       0.00280700
P        6.45982641      13.47504701       8.52086184       0.00000000 NULL      -0.00148600       0.00080000       0.00280700
P        6.45982641       0.18600152       3.29981418       0.00000000 NULL      -0.00148600      -0.00080000      -0.00280700
P        0.45150838       0.83668287       7.85688422       0.00000000 NULL       0.00149400      -0.00096600      -0.00228200
P        0.45150838      12.82436567       3.96379180       0.00000000 NULL       0.00149400       0.00096600       0.00228200
P        0.45150838       7.66720713       9.87412981       0.00000000 NULL       0.00149400      -0.00096500       0.00228200
P        0.45150838       5.99384140       1.94654621       0.00000000 NULL       0.00149400       0.00096500      -0.00228200
P        2.70001250       7.79732914      10.41312020       0.00000000 NULL       0.00277800       0.00162700      -0.00053400
P        2.70001250       5.86371940       1.40755582       0.00000000 NULL       0.00277800      -0.00162700       0.00053400
P        2.70001250       0.96680487       7.31789383       0.00000000 NULL       0.00277800       0.00162400       0.00053500
P        2.70001250      12.69424367       4.50278219       0.00000000 NULL       0.00277800      -0.00162400      -0.00053500
P        0.27074977      11.26654409       2.38098659       0.00000000 NULL      -0.00061400      -0.00080000      -0.00447700
P        0.27074977       2.39450445       9.43968943       0.00000000 NULL      -0.00061400       0.00080000       0.00447700
P        0.27074977       4.43601982       3.52935142       0.00000000 NULL      -0.00061400      -0.00080100       0.00447700
P        0.27074977       9.22502871       8.29132460       0.00000000 NULL      -0.00061400       0.00080100      -0.00447700
P        5.52633414       1.10794798       6.90070973       0.00000000 NULL      -0.00118800      -0.00191800      -0.00447700
P        5.52633414      12.55310056       4.91996629       0.00000000 NULL      -0.00118800       0.00191800       0.00447700
P        5.52633414       7.93847224      10.83030430       0.00000000 NULL      -0.00118800      -0.00191600       0.00447800
P        5.52633414       5.72257629       0.99037172       0.00000000 NULL      -0.00118800       0.00191600      -0.00447800
P        7.61089726       1.79079017       6.08424125       0.00000000 NULL      -0.00254000      -0.00116700       0.00128700
P        7.61089726      11.87025837       5.73643477       0.00000000 NULL      -0.00254000       0.00116700      -0.00128700
P        7.61089726       8.62131443      11.64677278       0.00000000 NULL      -0.00254000      -0.00116700      -0.00128600
P        7.61089726       5.03973410       0.17390324       0.00000000 NULL      -0.00253900       0.00116700       0.00128600
P        5.34676399       2.76800022       8.46235064       0.00000000 NULL       0.00405300      -0.00387800       0.00599400
P        5.34676399      10.89304831       3.35832538       0.00000000 NULL       0.00405300       0.00387800      -0.00599400
P        5.34676399       9.59852449       9.26866339       0.00000000 NULL       0.00405300      -0.00387700      -0.00599400
P        5.34676399       4.06252404       2.55201263       0.00000000 NULL       0.00405300       0.00387700       0.00599400
P        7.16925744       9.82770725       5.11705910       0.00000000 NULL       0.00330600      -0.00301700      -0.00328300
P        7.16925744       3.83334128       6.70361691       0.00000000 NULL       0.00330600       0.00301700       0.00328300
P        7.16925744       2.99718298       0.79327891       0.00000000 NULL       0.00330600      -0.00301700       0.00328300
P        7.16925744      10.66386555      11.02739711       0.00000000 NULL       0.00330600       0.00301700      -0.00328300
P        3.15459915      11.25032831       2.87272734       0.00000000 NULL      -0.00135500      -0.00367700       0.00218700
P        3.15459915       2.41072022       8.94794868       0.00000000 NULL      -0.00135500       0.00367700      -0.00218700
P        3.15459915       4.41980405       3.03761067       0.00000000 NULL      -0.00135500      -0.00367800      -0.00218700
P        3.15459915       9.24124449       8.78306535       0.00000000 NULL      -0.00135500       0.00367700       0.00218700
P        3.20661122      11.02575418      11.10326150       0.00000000 NULL       0.00452700      -0.00134900       0.00122400
P        3.20661122       2.63529435       0.71741452       0.00000000 NULL       0.00452700       0.00134900      -0.00122400
P        3.20661122       4.19522992       6.62775253       0.00000000 NULL       0.00452700      -0.00135000      -0.00122300
P        3.20661122       9.46581862       5.19292349       0.00000000 NULL       0.00452700       0.00135000       0.00122300
P        2.90108196       5.72809761       9.78479077       0.00000000 NULL      -0.00029500      -0.00069800       0.00229600
P        2.90108196       7.93295092       2.03588524       0.00000000 NULL      -0.00029500       0.00069800      -0.00229600
P        2.90108196      -1.10242665       7.94622325       0.00000000 NULL      -0.00029600      -0.00069500      -0.00229700
P        2.90108196      14.76347519       3.87445276       0.00000000 NULL      -0.00029600       0.00069500       0.00229700
P        4.05586652       0.98205431       2.06867174       0.00000000 NULL      -0.00035500      -0.00235000      -0.00344900
P        4.05586652      12.67899422       9.75200428       0.00000000 NULL      -0.00035500       0.00235000       0.00344800
P        4.05586652       7.81257858       3.84166627       0.00000000 NULL      -0.00035500      -0.00234800       0.00344900
P        4.05586652       5.84846996       7.97900975       0.00000000 NULL      -0.00035500       0.00234800      -0.00344900
P        6.28825536      12.16685794       1.79632219       0.00000000 NULL      -0.00313200      -0.00104100      -0.00070400
P        6.28825536       1.49419060      10.02435383       0.00000000 NULL      -0.00313200       0.00104100       0.00070400
P        6.28825536       5.33633367       4.11401582       0.00000000 NULL      -0.00313300      -0.00104300       0.00070600
P        6.28825536       8.32471487       7.70666019       0.00000000 NULL      -0.00313300       0.00104300      -0.00070600
