14
Lattice="4.105749999999999 -5.402087261293301e-16 -6.626262258974628e-17 0.5540534487852468 6.779929142460799 9.203093952593572e-16 0.039827728189456964 2.510476026422092 11.49844465383154" Properties=species:S:1:pos:R:3:initial_magmoms:R:1:castep_labels:S:1 n_minim_iter=1 pbc="T T T"
P        1.36468902       6.38459692      10.75723996       0.00000000 NULL
P        3.12462433       8.71957660      11.45284642       0.00000000 NULL
P        0.31314691       4.93233664       6.83915070       0.00000000 NULL
P        0.86978927       1.54977924       5.65986676       0.00000000 NULL
P        1.97450088       5.86245459       1.78891882       0.00000000 NULL
P        4.12990111       6.61563239       5.78454555       0.00000000 NULL
P        3.12459324       1.38157917       4.56337278       0.00000000 NULL
P        0.32518059       2.12559185       7.99527906       0.00000000 NULL
P        0.49905017       6.35122783       3.75853225       0.00000000 NULL
P        3.08990976       4.65469119       9.38156490       0.00000000 NULL
P        3.90850947       4.78269826       1.13970054       0.00000000 NULL
P        1.31425339       7.03687927       7.29984738       0.00000000 NULL
P        3.20542439       4.77356040       4.87999395       0.00000000 NULL
P        1.90769363       1.06106065       2.09836841       0.00000000 NULL
14
Lattice="4.107110749552648 -0.0009637635058107985 0.0024442943732699697 0.5526455890039866 6.792604731447656 -0.004165265463809422 0.04609705144478261 2.5075848569499932 11.511473179373366" Properties=species:S:1:pos:R:3:initial_magmoms:R:1:castep_labels:S:1 n_minim_iter=2 pbc="T T T"
P        1.37010187       6.38917806      10.76754269       0.00000000 NULL
P        3.13032193       8.72784925      11.46336928       0.00000000 NULL
P        0.31616527       4.93669410       6.84499851       0.00000000 NULL
P        0.87323364       1.54898278       5.66665384       0.00000000 NULL
P        1.97476428       5.87174468       1.78847240       0.00000000 NULL
P        4.13286850       6.62333403       5.79005905       0.00000000 NULL
P        3.12788518       1.38070545       4.56983598       0.00000000 NULL
P        0.32947883       2.12440960       8.00427996       0.00000000 NULL
P        0.49991638       6.36048763       3.75929786       0.00000000 NULL
P        3.09538102       4.65663414       9.39229195       0.00000000 NULL
P        3.90957407       4.78982591       1.14033343       0.00000000 NULL
P        1.31766361       7.04482726       7.30554881       0.00000000 NULL
P        3.20831426       4.77858995       4.88494969       0.00000000 NULL
P        1.90936233       1.06136099       2.10143449       0.00000000 NULL
14
Lattice="4.134580662529475 -0.021984102886780085 0.05573841984822352 0.521641116853756 7.064461584325544 -0.09551538632761518 0.18276454417871893 2.4419720575927903 11.787235418945986" Properties=species:S:1:pos:R:3:initial_magmoms:R:1:castep_labels:S:1 n_minim_iter=3 pbc="T T T"
P        1.48738336       6.48393867      10.98412176       0.00000000 NULL
P        3.25284440       8.90157207      11.68401749       0.00000000 NULL
P        0.38186483       5.02763523       6.96741176       0.00000000 NULL
P        0.94783161       1.53022013       5.81063221       0.00000000 NULL
P        1.97946890       6.07025728       1.77702141       0.00000000 NULL
P        4.19538502       6.78638173       5.90560631       0.00000000 NULL
P        3.19791696       1.36056029       4.70721996       0.00000000 NULL
P        0.42303550       2.09665776       8.19460896       0.00000000 NULL
P        0.51846388       6.55779167       3.77288858       0.00000000 NULL
P        3.21296060       4.69528432       9.61914047       0.00000000 NULL
P        3.93068579       4.94184752       1.15298657       0.00000000 NULL
P        1.39135830       7.21268326       7.42433609       0.00000000 NULL
P        3.26965363       4.88476661       4.98922965       0.00000000 NULL
P        1.94468163       1.06704728       2.16663569       0.00000000 NULL
14
Lattice="4.104520826537952 -0.033310190868852535 0.09221593841114595 0.49888161377130924 7.137218623816671 -0.14381056570153491 0.27770545411610903 2.379113960906054 11.781368664806344" Properties=species:S:1:pos:R:3:initial_magmoms:R:1:castep_labels:S:1 n_minim_iter=4 pbc="T T T"
P        1.55638772       6.46514141      10.95894119       0.00000000 NULL
P        3.30651618       8.89906237      11.65625178       0.00000000 NULL
P        0.42598795       5.02166834       6.94186282       0.00000000 NULL
P        0.98991381       1.50430979       5.81646355       0.00000000 NULL
P        1.96356249       6.11445448       1.74998380       0.00000000 NULL
P        4.19322188       6.80123551       5.89807974       0.00000000 NULL
P        3.21000931       1.33430745       4.72428196       0.00000000 NULL
P        0.48474891       2.05859081       8.18915332       0.00000000 NULL
P        0.52884609       6.59356778       3.73143517       0.00000000 NULL
P        3.25935842       4.66706499       9.62070287       0.00000000 NULL
P        3.90267295       4.97203557       1.14959880       0.00000000 NULL
P        1.43172545       7.22659825       7.39328853       0.00000000 NULL
P        3.27856755       4.89196391       4.98663179       0.00000000 NULL
P        1.94684156       1.05728006       2.17611091       0.00000000 NULL
14
Lattice="4.035389276703342 -0.05038014882843135 0.14411276662943293 0.4613645513499584 7.203520413087531 -0.2095376817644143 0.41193811177224743 2.2810042570826923 11.706487293843358" Properties=species:S:1:pos:R:3:initial_magmoms:R:1:castep_labels:S:1 n_minim_iter=5 pbc="T T T"
P        1.64496086       6.40731484      10.86259879       0.00000000 NULL
P        3.36146405       8.85129152      11.55376108       0.00000000 NULL
P        0.48483090       4.98772941       6.86778235       0.00000000 NULL
P        1.04525348       1.46333063       5.79508386       0.00000000 NULL
P        1.92550190       6.14622408       1.70379126       0.00000000 NULL
P        4.16040738       6.78671950       5.85764972       0.00000000 NULL
P        3.20599242       1.29104733       4.72037997       0.00000000 NULL
P        0.56950542       1.99708869       8.13407387       0.00000000 NULL
P        0.53778730       6.60913663       3.65290848       0.00000000 NULL
P        3.30347209       4.60717551       9.56901038       0.00000000 NULL
P        3.83811294       4.98835317       1.13792697       0.00000000 NULL
P        1.48047331       7.21003343       7.31099137       0.00000000 NULL
P        3.27097151       4.87908759       4.95694945       0.00000000 NULL
P        1.93759154       1.03709130       2.17642222       0.00000000 NULL
14
Lattice="3.9462003502509244 -0.07267141428337986 0.18166613424442263 0.41251875397438836 7.239740351120084 -0.26584647989031523 0.5026137347990861 2.1912217743052773 11.662461295041732" Properties=species:S:1:pos:R:3:initial_magmoms:R:1:castep_labels:S:1 n_minim_iter=6 pbc="T T T"
P        1.68324070       6.33613585      10.79642723       0.00000000 NULL
P        3.35215401       8.78026944      11.48037506       0.00000000 NULL
P        0.51039520       4.93923730       6.81871474       0.00000000 NULL
P        1.07875318       1.43048324       5.79386135       0.00000000 NULL
P        1.85892137       6.15346833       1.66676929       0.00000000 NULL
P        4.07492345       6.74548798       5.83290621       0.00000000 NULL
P        3.16623590       1.24733381       4.71282355       0.00000000 NULL
P        0.62064742       1.94238382       8.09734002       0.00000000 NULL
P        0.52056579       6.59705528       3.58919742       0.00000000 NULL
P        3.29167108       4.54514516       9.53398168       0.00000000 NULL
P        3.74887997       4.97948805       1.11815664       0.00000000 NULL
P        1.49158339       7.17107147       7.25910449       0.00000000 NULL
P        3.22722385       4.85220488       4.93644868       0.00000000 NULL
P        1.91110213       1.01181325       2.17315371       0.00000000 NULL
14
Lattice="3.899082508543028 -0.09639756616996538 0.17029937877423562 0.36698080565510605 7.274925498110072 -0.29245518789417424 0.4558158194923765 2.1626798218927896 11.741708564611585" Properties=species:S:1:pos:R:3:initial_magmoms:R:1:castep_labels:S:1 n_minim_iter=7 pbc="T T T"
P        1.60635452       6.32051536      10.84946201       0.00000000 NULL
P        3.23759108       8.76772667      11.52395857       0.00000000 NULL
P        0.45541772       4.92672209       6.85834723       0.00000000 NULL
P        1.05415122       1.43155033       5.84883080       0.00000000 NULL
P        1.78468414       6.16810032       1.65788502       0.00000000 NULL
P        3.96136586       6.73194781       5.85410806       0.00000000 NULL
P        3.10307365       1.22680528       4.71693782       0.00000000 NULL
P        0.57895474       1.93111353       8.14332286       0.00000000 NULL
P        0.46118062       6.60180175       3.58866847       0.00000000 NULL
P        3.19782849       4.53553529       9.57597952       0.00000000 NULL
P        3.68652397       4.97349708       1.08535885       0.00000000 NULL
P        1.42580141       7.16915580       7.30326571       0.00000000 NULL
P        3.15572991       4.84812866       4.94964046       0.00000000 NULL
P        1.87947086       0.99707016       2.17076903       0.00000000 NULL
14
Lattice="3.8606579227045583 -0.10363966487574384 0.16181652875301208 0.34983651036926683 7.219800193852369 -0.3042140912065483 0.4272580503592816 2.1245584586544277 11.616379851290505" Properties=species:S:1:pos:R:3:initial_magmoms:R:1:castep_labels:S:1 n_minim_iter=8 pbc="T T T"
P        1.56275059       6.24851477      10.72174350       0.00000000 NULL
P        3.17064197       8.67232234      11.38294997       0.00000000 NULL
P        0.42752391       4.87167311       6.77981829       0.00000000 NULL
P        1.03541208       1.41722315       5.79347949       0.00000000 NULL
P        1.74650910       6.11545577       1.62716684       0.00000000 NULL
P        3.89473523       6.66007980       5.77821979       0.00000000 NULL
P        3.05964711       1.20451761       4.65299502       0.00000000 NULL
P        0.55431182       1.90326478       8.05125934       0.00000000 NULL
P        0.43470018       6.53846989       3.53886094       0.00000000 NULL
P        3.13898769       4.48667891       9.46159731       0.00000000 NULL
P        3.64492141       4.92426206       1.05066880       0.00000000 NULL
P        1.38982874       7.09701579       7.22033320       0.00000000 NULL
P        3.10967372       4.79838868       4.88471500       0.00000000 NULL
P        1.85653015       0.98085959       2.13889309       0.00000000 NULL
14
Lattice="3.870417063806773 -0.10925314320318341 0.15745509461220744 0.3418837856495663 7.253986522456695 -0.30999675052489895 0.41170583032005187 2.1286340753575477 11.66497843042466" Properties=species:S:1:pos:R:3:initial_magmoms:R:1:castep_labels:S:1 n_minim_iter=9 pbc="T T T"
P        1.54726160       6.27042815      10.76167580       0.00000000 NULL
P        3.15458219       8.70341570      11.42214333       0.00000000 NULL
P        0.41347867       4.88832138       6.80754428       0.00000000 NULL
P        1.03150696       1.42448118       5.82066570       0.00000000 NULL
P        1.73814516       6.14088632       1.62970033       0.00000000 NULL
P        3.88657550       6.68334809       5.79681419       0.00000000 NULL
P        3.05893792       1.20534142       4.66440069       0.00000000 NULL
P        0.54280183       1.90965392       8.08284383       0.00000000 NULL
P        0.42188873       6.56452266       3.54958406       0.00000000 NULL
P        3.12911844       4.50367846       9.49533595       0.00000000 NULL
P        3.64949868       4.94061519       1.04445326       0.00000000 NULL
P        1.37812065       7.12412626       7.25055119       0.00000000 NULL
P        3.10637744       4.81479826       4.89904762       0.00000000 NULL
P        1.85802448       0.98271969       2.14297997       0.00000000 NULL
14
Lattice="3.865310154276888 -0.11285437256242647 0.1531581299586379 0.3352478285846977 7.251254009204992 -0.3153928852869272 0.39742035097396233 2.1195991074952207 11.649689820086373" Properties=species:S:1:pos:R:3:initial_magmoms:R:1:castep_labels:S:1 n_minim_iter=10 pbc="T T T"
P        1.52996524       6.25870756      10.74226746       0.00000000 NULL
P        3.13158806       8.68854187      11.39882038       0.00000000 NULL
P        0.40073213       4.87932432       6.79697738       0.00000000 NULL
P        1.02487569       1.42328281       5.81582396       0.00000000 NULL
P        1.72601038       6.13575501       1.62226385       0.00000000 NULL
P        3.86740266       6.67257467       5.78311180       0.00000000 NULL
P        3.04800452       1.19968094       4.65129386       0.00000000 NULL
P        0.53149720       1.90424995       8.07004283       0.00000000 NULL
P        0.41053832       6.55670089       3.54035454       0.00000000 NULL
P        3.11054100       4.49683598       9.47719812       0.00000000 NULL
P        3.64188214       4.93331327       1.03230868       0.00000000 NULL
P        1.36465005       7.11427721       7.23965769       0.00000000 NULL
P        3.09389032       4.80704817       4.88661585       0.00000000 NULL
P        1.85310460       0.97928438       2.13579337       0.00000000 NULL
14
Lattice="3.8484000164110825 -0.12960330459882868 0.132140643038313 0.305307941201714 7.249540177945064 -0.3411930601046346 0.3281541523899982 2.080693143961319 11.59836224236974" Properties=species:S:1:pos:R:3:initial_magmoms:R:1:castep_labels:S:1 n_minim_iter=11 pbc="T T T"
P        1.44923803       6.21363488      10.66952813       0.00000000 NULL
P        3.02690198       8.63220413      11.30855007       0.00000000 NULL
P        0.34022843       4.84472768       6.75964554       0.00000000 NULL
P        0.99388752       1.42015918       5.80265754       0.00000000 NULL
P        1.67227391       6.12103606       1.59009985       0.00000000 NULL
P        3.78338904       6.63306640       5.72824848       0.00000000 NULL
P        3.00132696       1.17525958       4.59705009       0.00000000 NULL
P        0.47739358       1.88211049       8.02413574       0.00000000 NULL
P        0.35765400       6.53026061       3.50350504       0.00000000 NULL
P        3.02710186       4.47244125       9.40814564       0.00000000 NULL
P        3.61286614       4.90658164       0.97592542       0.00000000 NULL
P        1.30255860       7.07903005       7.20134010       0.00000000 NULL
P        3.03965468       4.77764087       4.83577730       0.00000000 NULL
P        1.83303563       0.96536503       2.10523358       0.00000000 NULL
14
Lattice="3.821717275697849 -0.1747285108930028 0.04568498178809773 0.22719082113135947 7.2243675931768605 -0.4356137700643048 0.05817811940468282 1.9328425495925978 11.397896437802787" Properties=species:S:1:pos:R:3:initial_magmoms:R:1:castep_labels:S:1 n_minim_iter=12 pbc="T T T"
P        1.16347524       6.03856351      10.38774106       0.00000000 NULL
P        2.67562984       8.41050508      10.96246443       0.00000000 NULL
P        0.12589413       4.71291281       6.61519620       0.00000000 NULL
P        0.87297501       1.39975275       5.73036476       0.00000000 NULL
P        1.51907661       6.05738591       1.46726062       0.00000000 NULL
P        3.52774805       6.49244209       5.50979961       0.00000000 NULL
P        2.85821059       1.08923582       4.39425921       0.00000000 NULL
P        0.27406951       1.79298596       7.85187695       0.00000000 NULL
P        0.18786697       6.42518042       3.36928285       0.00000000 NULL
P        2.75048762       4.37846404       9.14262826       0.00000000 NULL
P        3.54964927       4.81056456       0.76258349       0.00000000 NULL
P        1.09250183       6.93760429       7.04374353       0.00000000 NULL
P        2.87065116       4.65956076       4.63392763       0.00000000 NULL
P        1.77573410       0.92359969       1.99080180       0.00000000 NULL
14
Lattice="3.8422159466924133 -0.2034269760130046 -0.0024725018183833604 0.18256652577710775 7.23412884845991 -0.4509085049272863 -0.0940392715955202 1.9226948065479823 11.743477896551884" Properties=species:S:1:pos:R:3:initial_magmoms:R:1:castep_labels:S:1 n_minim_iter=13 pbc="T T T"
P        1.00873201       6.02137641      10.67019156       0.00000000 NULL
P        2.49329381       8.36700226      11.25706470       0.00000000 NULL
P        0.00199125       4.69789320       6.83270270       0.00000000 NULL
P        0.81108016       1.42977149       5.90808921       0.00000000 NULL
P        1.45578418       6.05375534       1.50836607       0.00000000 NULL
P        3.40805939       6.48191209       5.65311706       0.00000000 NULL
P        2.80988320       1.05930779       4.45678752       0.00000000 NULL
P        0.16037871       1.79199992       8.08437796       0.00000000 NULL
P        0.09148141       6.41333214       3.48075641       0.00000000 NULL
P        2.63109206       4.40341638       9.39147606       0.00000000 NULL
P        3.53559688       4.76582867       0.69647595       0.00000000 NULL
P        0.98638315       6.92432304       7.29155193       0.00000000 NULL
P        2.79391149       4.61539203       4.72719069       0.00000000 NULL
P        1.76068468       0.92467243       2.00947659       0.00000000 NULL
14
Lattice="3.783495752860784 -0.20734439698847779 -0.003107720289775649 0.16817354945350052 7.120001919667475 -0.47303269097988987 -0.0987831814292607 1.8432173524091653 11.469304398312028" Properties=species:S:1:pos:R:3:initial_magmoms:R:1:castep_labels:S:1 n_minim_iter=14 pbc="T T T"
P        0.98103455       5.87853395      10.40024367       0.00000000 NULL
P        2.43753224       8.17827454      10.96548159       0.00000000 NULL
P       -0.00877902       4.59478520       6.65740676       0.00000000 NULL
P        0.79479465       1.38319197       5.76936930       0.00000000 NULL
P        1.42307229       5.94877629       1.44692443       0.00000000 NULL
P        3.34325734       6.34850489       5.49553125       0.00000000 NULL
P        2.76429446       1.01699623       4.34801194       0.00000000 NULL
P        0.15281353       1.72884664       7.89212541       0.00000000 NULL
P        0.07796767       6.29483979       3.37599837       0.00000000 NULL
P        2.58187182       4.29346861       9.15951843       0.00000000 NULL
P        3.47398125       4.67909082       0.65409027       0.00000000 NULL
P        0.95879349       6.78124554       7.09704104       0.00000000 NULL
P        2.74261267       4.51611709       4.59839000       0.00000000 NULL
P        1.73208904       0.89868738       1.95832129       0.00000000 NULL
14
Lattice="3.7867631360621004 -0.21336611162019084 -0.007475411001194287 0.15867065873001704 7.143922016652008 -0.4853393250142577 -0.11466551417751428 1.8324450956392286 11.465239671993803" Properties=species:S:1:pos:R:3:initial_magmoms:R:1:castep_labels:S:1 n_minim_iter=15 pbc="T T T"
P        0.96167737       5.88072746      10.38623778       0.00000000 NULL
P        2.41448088       8.18352236      10.94687209       0.00000000 NULL
P       -0.02391627       4.59948413       6.65007115       0.00000000 NULL
P        0.78747190       1.38116005       5.76640638       0.00000000 NULL
P        1.41402341       5.96374648       1.43627208       0.00000000 NULL
P        3.32926172       6.35761080       5.48123341       0.00000000 NULL
P        2.76008276       1.00969710       4.33993129       0.00000000 NULL
P        0.14084204       1.72341832       7.88798007       0.00000000 NULL
P        0.06462013       6.30909333       3.36622466       0.00000000 NULL
P        2.56850896       4.29401086       9.14930096       0.00000000 NULL
P        3.46937323       4.68629692       0.63877164       0.00000000 NULL
P        0.94321269       6.79051929       7.08670886       0.00000000 NULL
P        2.73274586       4.51819239       4.58601997       0.00000000 NULL
P        1.73029118       0.89860057       1.95324338       0.00000000 NULL
14
Lattice="3.784741620986225 -0.2195837598610638 -0.0123888654961059 0.1481305036047844 7.150495401465942 -0.49864483580010455 -0.13224740634612375 1.8136884340070298 11.444657342581358" Properties=species:S:1:pos:R:3:initial_magmoms:R:1:castep_labels:S:1 n_minim_iter=16 pbc="T T T"
P        0.93872084       5.86509339      10.35582286       0.00000000 NULL
P        2.38539374       8.16433719      10.91070865       0.00000000 NULL
P       -0.04074943       4.59096712       6.63246316       0.00000000 NULL
P        0.77812932       1.37434364       5.75500059       0.00000000 NULL
P        1.40211590       5.96367881       1.42214702       0.00000000 NULL
P        3.30879677       6.34896313       5.45737404       0.00000000 NULL
P        2.75132655       0.99780245       4.32469775       0.00000000 NULL
P        0.12733016       1.71117466       7.87225923       0.00000000 NULL
P        0.04978897       6.30668458       3.35053137       0.00000000 NULL
P        2.54997150       4.28148261       9.12499128       0.00000000 NULL
P        3.45918864       4.68100079       0.62026765       0.00000000 NULL
P        0.92463734       6.78078941       7.06518425       0.00000000 NULL
P        2.71783036       4.50708791       4.56562835       0.00000000 NULL
P        1.72573662       0.89542520       1.94482386       0.00000000 NULL
14
Lattice="3.781561960974408 -0.2311479964659689 -0.022282991039124844 0.12860510474625192 7.155312201421715 -0.5221922567820962 -0.16705844753217755 1.7782667170692583 11.422401218987806" Properties=species:S:1:pos:R:3:initial_magmoms:R:1:castep_labels:S:1 n_minim_iter=17 pbc="T T T"
P        0.89411150       5.83100256      10.31423435       0.00000000 NULL
P        2.32961573       8.12075877      10.85992333       0.00000000 NULL
P       -0.07350200       4.57121346       6.61020833       0.00000000 NULL
P        0.75997603       1.36157649       5.74177670       0.00000000 NULL
P        1.38009139       5.95771379       1.39947685       0.00000000 NULL
P        3.26980300       6.32712401       5.42172610       0.00000000 NULL
P        2.73474261       0.97480501       4.30150561       0.00000000 NULL
P        0.10073249       1.68743614       7.85422659       0.00000000 NULL
P        0.02146161       6.29586949       3.32772314       0.00000000 NULL
P        2.51461744       4.25546233       9.09300182       0.00000000 NULL
P        3.44048308       4.66588061       0.58666805       0.00000000 NULL
P        0.88921741       6.75625785       7.03715465       0.00000000 NULL
P        2.68955831       4.48170343       4.53436633       0.00000000 NULL
P        1.71720770       0.88898784       1.93159760       0.00000000 NULL
14
Lattice="3.777603954789718 -0.24088448132110132 -0.031200880115107955 0.1119928842283485 7.147039298331705 -0.5414811428017177 -0.19802543387429047 1.744923392990335 11.419490103398426" Properties=species:S:1:pos:R:3:initial_magmoms:R:1:castep_labels:S:1 n_minim_iter=18 pbc="T T T"
P        0.85426934       5.79148045      10.29323643       0.00000000 NULL
P        2.27993259       8.06816454      10.83292300       0.00000000 NULL
P       -0.10256623       4.54655221       6.60171894       0.00000000 NULL
P        0.74381665       1.34946494       5.73860409       0.00000000 NULL
P        1.36111236       5.94249972       1.38376423       0.00000000 NULL
P        3.23422574       6.29794262       5.40013765       0.00000000 NULL
P        2.71935320       0.95294928       4.28664695       0.00000000 NULL
P        0.07701652       1.66404314       7.85007392       0.00000000 NULL
P       -0.00325104       6.27529243       3.31456380       0.00000000 NULL
P        2.48335564       4.22704550       9.07922655       0.00000000 NULL
P        3.42302678       4.64408750       0.55825372       0.00000000 NULL
P        0.85842467       6.72306581       7.02557526       0.00000000 NULL
P        2.66387839       4.45122773       4.51417554       0.00000000 NULL
P        1.70920870       0.88239744       1.92278307       0.00000000 NULL
14
Lattice="3.7711691409255703 -0.2534706759198295 -0.04257791265456403 0.09034063107939327 7.1345299775384055 -0.5679600948040164 -0.23764591802488375 1.6984949419547908 11.424652552688126" Properties=species:S:1:pos:R:3:initial_magmoms:R:1:castep_labels:S:1 n_minim_iter=19 pbc="T T T"
P        0.80226611       5.73594768      10.27249567       0.00000000 NULL
P        2.21496424       7.99400620      10.80547588       0.00000000 NULL
P       -0.14043957       4.51201618       6.59579850       0.00000000 NULL
P        0.72296725       1.33334836       5.73899944       0.00000000 NULL
P        1.33658627       5.92086009       1.36437530       0.00000000 NULL
P        3.18666652       6.25797815       5.37612090       0.00000000 NULL
P        2.69886865       0.92306967       4.26979020       0.00000000 NULL
P        0.04641443       1.63135727       7.85078558       0.00000000 NULL
P       -0.03531488       6.24556936       3.29982843       0.00000000 NULL
P        2.44318107       4.18828260       9.06868434       0.00000000 NULL
P        3.39884888       4.61376705       0.52013957       0.00000000 NULL
P        0.81895217       6.67569318       7.01663924       0.00000000 NULL
P        2.62966656       4.40837586       4.49066214       0.00000000 NULL
P        1.69835500       0.87413971       1.91267532       0.00000000 NULL
14
Lattice="3.7435721600186396 -0.2860078452863269 -0.07183000011988451 0.03288708294600904 7.086831270416915 -0.6478901582277862 -0.33973114421879713 1.5532802320155406 11.436761322870376" Properties=species:S:1:pos:R:3:initial_magmoms:R:1:castep_labels:S:1 n_minim_iter=20 pbc="T T T"
P        0.66252307       5.55869563      10.20598041       0.00000000 NULL
P        2.03846226       7.75777060      10.72275988       0.00000000 NULL
P       -0.24115538       4.40134091       6.57617532       0.00000000 NULL
P        0.66689029       1.28415945       5.73874272       0.00000000 NULL
P        1.27055076       5.84856372       1.30796797       0.00000000 NULL
P        3.05128995       6.13351922       5.30643955       0.00000000 NULL
P        2.63914236       0.83427291       4.21993420       0.00000000 NULL
P       -0.03378311       1.52827338       7.85079407       0.00000000 NULL
P       -0.11972920       6.14525351       3.25543779       0.00000000 NULL
P        2.33524352       4.06773136       9.03791817       0.00000000 NULL
P        3.32441785       4.52029920       0.40828139       0.00000000 NULL
P        0.71543696       6.52019535       6.99014188       0.00000000 NULL
P        2.53238501       4.27409033       4.42151535       0.00000000 NULL
P        1.66530391       0.85150782       1.88437985       0.00000000 NULL
14
Lattice="3.759305281184033 -0.29129211889168727 -0.08003572381983348 0.02628414546275382 7.167918642398161 -0.6928229171586617 -0.36579032647257675 1.5091921992021566 11.644392847105259" Properties=species:S:1:pos:R:3:initial_magmoms:R:1:castep_labels:S:1 n_minim_iter=21 pbc="T T T"
P        0.63054686       5.55696792      10.34418203       0.00000000 NULL
P        2.01154722       7.75600267      10.87766700       0.00000000 NULL
P       -0.27283039       4.41794177       6.69119666       0.00000000 NULL
P        0.66105605       1.30452556       5.84232660       0.00000000 NULL
P        1.27623697       5.90536216       1.31993771       0.00000000 NULL
P        3.03466047       6.18936091       5.38303630       0.00000000 NULL
P        2.64476424       0.81375520       4.26030776       0.00000000 NULL
P       -0.05582128       1.50356613       7.99007017       0.00000000 NULL
P       -0.13745925       6.17886801       3.30335674       0.00000000 NULL
P        2.34281508       4.10073537       9.19578550       0.00000000 NULL
P        3.32581739       4.54366535       0.35595710       0.00000000 NULL
P        0.71097366       6.53364901       7.12483139       0.00000000 NULL
P        2.52526325       4.26955874       4.46891937       0.00000000 NULL
P        1.66919083       0.87419442       1.90675951       0.00000000 NULL
14
Lattice="3.7060991501809513 -0.294911284073361 -0.08343566833880185 0.013127785756149795 7.048705324524836 -0.7087599834261787 -0.3780411894392278 1.4389451514814033 11.436811318493909" Properties=species:S:1:pos:R:3:initial_magmoms:R:1:castep_labels:S:1 n_minim_iter=22 pbc="T T T"
P        0.59708194       5.42027507      10.13990426       0.00000000 NULL
P        1.95366133       7.57356160      10.65627972       0.00000000 NULL
P       -0.28699221       4.31852335       6.55857843       0.00000000 NULL
P        0.64128822       1.26017059       5.73535532       0.00000000 NULL
P        1.24536580       5.79812374       1.27188242       0.00000000 NULL
P        2.97272621       6.05654506       5.26124307       0.00000000 NULL
P        2.60067938       0.77591864       4.17699338       0.00000000 NULL
P       -0.06757579       1.44583836       7.84454296       0.00000000 NULL
P       -0.15186601       6.06024394       3.22399842       0.00000000 NULL
P        2.29165017       3.99302846       9.01752552       0.00000000 NULL
P        3.26909360       4.45674153       0.32414865       0.00000000 NULL
P        0.67945208       6.39237493       6.97569912       0.00000000 NULL
P        2.47540288       4.17319941       4.37068013       0.00000000 NULL
P        1.64157953       0.84771741       1.86836048       0.00000000 NULL
14
Lattice="3.713918742871209 -0.2972200698817503 -0.08693077842238775 0.010370449852148366 7.065025276529923 -0.711109778903033 -0.3891653554661495 1.4418958341108927 11.477491981415874" Properties=species:S:1:pos:R:3:initial_magmoms:R:1:castep_labels:S:1 n_minim_iter=23 pbc="T T T"
P        0.58651174       5.43153497      10.17334765       0.00000000 NULL
P        1.94473386       7.58819029      10.69160147       0.00000000 NULL
P       -0.29611203       4.32865934       6.58291625       0.00000000 NULL
P        0.63735616       1.26527005       5.75498131       0.00000000 NULL
P        1.24455487       5.81104072       1.27647992       0.00000000 NULL
P        2.97094499       6.07003181       5.27837626       0.00000000 NULL
P        2.60239899       0.77629100       4.18741662       0.00000000 NULL
P       -0.07537157       1.44878298       7.87239547       0.00000000 NULL
P       -0.15796029       6.07293111       3.23659738       0.00000000 NULL
P        2.28830632       4.00310828       9.04809931       0.00000000 NULL
P        3.27316599       4.46393780       0.32097841       0.00000000 NULL
P        0.67274603       6.40498120       7.00213645       0.00000000 NULL
P        2.47449456       4.18004064       4.38356528       0.00000000 NULL
P        1.64305797       0.85043603       1.87348768       0.00000000 NULL
14
Lattice="3.7124350953159313 -0.29878311272439984 -0.0890401006128673 0.007589145641083689 7.061585062794363 -0.7149165639369465 -0.3960427825770617 1.4347115419264913 11.478134577988772" Properties=species:S:1:pos:R:3:initial_magmoms:R:1:castep_labels:S:1 n_minim_iter=24 pbc="T T T"
P        0.57748063       5.42199623      10.16937014       0.00000000 NULL
P        1.93414602       7.57528643      10.68706464       0.00000000 NULL
P       -0.30253424       4.32311085       6.58225870       0.00000000 NULL
P        0.63337285       1.26350378       5.75457835       0.00000000 NULL
P        1.24115057       5.80682256       1.27361661       0.00000000 NULL
P        2.96353944       6.06324789       5.27476200       0.00000000 NULL
P        2.59888694       0.77197905       4.18389113       0.00000000 NULL
P       -0.08060166       1.44330033       7.87239105       0.00000000 NULL
P       -0.16260455       6.06671285       3.23487565       0.00000000 NULL
P        2.28186100       3.99696945       9.04619410       0.00000000 NULL
P        3.26933594       4.45836581       0.31497482       0.00000000 NULL
P        0.66636645       6.39580887       7.00107316       0.00000000 NULL
P        2.46882362       4.17279000       4.37991001       0.00000000 NULL
P        1.64101021       0.84937266       1.87230419       0.00000000 NULL
14
Lattice="3.7055877356945395 -0.306678248707857 -0.0994975518313402 -0.006372314689241029 7.047336697337309 -0.7372668452814471 -0.43022355063292833 1.3942418367140597 11.488688649811705" Properties=species:S:1:pos:R:3:initial_magmoms:R:1:castep_labels:S:1 n_minim_iter=25 pbc="T T T"
P        0.53167921       5.37122097      10.15182112       0.00000000 NULL
P        1.88126837       7.50646087      10.66811575       0.00000000 NULL
P       -0.33596660       4.29467430       6.58302524       0.00000000 NULL
P        0.61376980       1.25627149       5.75608502       0.00000000 NULL
P        1.22509375       5.78759164       1.25907011       0.00000000 NULL
P        2.92646225       6.03080273       5.25911468       0.00000000 NULL
P        2.58236116       0.74857761       4.16595600       0.00000000 NULL
P       -0.10692270       1.41257645       7.87707249       0.00000000 NULL
P       -0.18601685       6.03480153       3.22760362       0.00000000 NULL
P        2.25212743       3.96694929       9.04210355       0.00000000 NULL
P        3.25047528       4.42998256       0.28102400       0.00000000 NULL
P        0.63577323       6.34718253       7.00102859       0.00000000 NULL
P        2.44056499       4.13427640       4.36245622       0.00000000 NULL
P        1.63116700       0.84549098       1.86751069       0.00000000 NULL
14
Lattice="3.6887618453824933 -0.3001418148610992 -0.08805169622503707 0.002150882234382851 7.026285854466313 -0.7655603967281024 -0.3943351110811903 1.335579848142933 11.456913556212303" Properties=species:S:1:pos:R:3:initial_magmoms:R:1:castep_labels:S:1 n_minim_iter=26 pbc="T T T"
P        0.55404110       5.29955752      10.08056466       0.00000000 NULL
P        1.90816321       7.40513540      10.61167976       0.00000000 NULL
P       -0.32621349       4.25591213       6.56416429       0.00000000 NULL
P        0.62999177       1.26805006       5.74112319       0.00000000 NULL
P        1.24090725       5.76679522       1.24765063       0.00000000 NULL
P        2.93184715       6.00749229       5.24342718       0.00000000 NULL
P        2.58980976       0.72653003       4.12796856       0.00000000 NULL
P       -0.08613157       1.36563903       7.85141888       0.00000000 NULL
P       -0.16940025       5.98015008       3.21187426       0.00000000 NULL
P        2.29610833       3.95092095       9.02020553       0.00000000 NULL
P        3.24158074       4.39441862       0.24328497       0.00000000 NULL
P        0.67404088       6.27129048       6.99338730       0.00000000 NULL
P        2.44357711       4.08242613       4.33625749       0.00000000 NULL
P        1.63198802       0.85765729       1.86762771       0.00000000 NULL
