8
Lattice="2.9459599999999995 1.0492874870987283e-15 5.26240682890032e-16 1.2583860844906507 6.270048856967566 -5.557333397020415e-16 0.8815859334720947 1.0027034681831128 9.906473019112182" Properties=species:S:1:pos:R:3:initial_magmoms:R:1:castep_labels:S:1 n_minim_iter=1 pbc="T T T"
P        2.20525145       2.13593788       8.85906955       0.00000000 NULL
P        3.42294247       1.38912151       5.28860133       0.00000000 NULL
P        1.86035190       5.90730842       6.51507321       0.00000000 NULL
P        1.21838704       3.13846123       3.55164196       0.00000000 NULL
P        1.95006901       1.44317527       6.70997515       0.00000000 NULL
P        1.59385912       1.06665359       1.28727286       0.00000000 NULL
P        0.76942019       2.66857383       0.24662462       0.00000000 NULL
P        3.20048432       3.60127542       7.80318515       0.00000000 NULL
8
Lattice="2.9473514690934204 -5.0669843316649544e-05 0.00016887478874510532 1.2588726161988182 6.273740051454113 -6.451590496689705e-05 0.8825529684251555 1.0030661550896045 9.916007447597158" Properties=species:S:1:pos:R:3:initial_magmoms:R:1:castep_labels:S:1 n_minim_iter=2 pbc="T T T"
P        2.20668135       2.13670319       8.86771446       0.00000000 NULL
P        3.42488601       1.38985375       5.29338885       0.00000000 NULL
P        1.86145628       5.91061006       6.52132582       0.00000000 NULL
P        1.21908515       3.14015432       3.55509105       0.00000000 NULL
P        1.95136414       1.44383754       6.71670327       0.00000000 NULL
P        1.59476017       1.06717476       1.28868045       0.00000000 NULL
P        0.76962399       2.67040439       0.24691837       0.00000000 NULL
P        3.20251072       3.60325547       7.81071891       0.00000000 NULL
8
Lattice="2.9954956505484973 -0.0019281455433370403 0.006393237514308437 1.2754417833380076 6.402885210716097 -0.0013168529192560219 0.9172520692803747 1.0171059715687139 10.25540101767443" Properties=species:S:1:pos:R:3:initial_magmoms:R:1:castep_labels:S:1 n_minim_iter=3 pbc="T T T"
P        2.25709927       2.16439223       9.17582535       0.00000000 NULL
P        3.49281472       1.41618970       5.46370949       0.00000000 NULL
P        1.90019138       6.02705776       6.74478839       0.00000000 NULL
P        1.24352110       3.19975495       3.67842775       0.00000000 NULL
P        1.99701882       1.46784900       6.95659842       0.00000000 NULL
P        1.62619547       1.08553979       1.33908167       0.00000000 NULL
P        0.77642198       2.73471102       0.25787824       0.00000000 NULL
P        3.27365147       3.67353781       8.07950589       0.00000000 NULL
8
Lattice="2.9817273411228062 -0.0033639578347461315 0.014912819592546806 1.2665046415557593 6.395146432192262 0.04816560130939665 0.9412922355115939 1.0879676568076808 10.376526474833394" Properties=species:S:1:pos:R:3:initial_magmoms:R:1:castep_labels:S:1 n_minim_iter=4 pbc="T T T"
P        2.26891399       2.22082845       9.29984058       0.00000000 NULL
P        3.49347089       1.45260708       5.53171294       0.00000000 NULL
P        1.90605206       6.06926996       6.86643484       0.00000000 NULL
P        1.24544137       3.21896287       3.74697438       0.00000000 NULL
P        2.00674611       1.51343863       7.05244162       0.00000000 NULL
P        1.62434543       1.09397897       1.36606548       0.00000000 NULL
P        0.76919744       2.73746445       0.28432133       0.00000000 NULL
P        3.28296554       3.72468305       8.20315309       0.00000000 NULL
8
Lattice="2.927973213892766 -0.002426194450070644 0.031708918124416625 1.2455391079259641 6.37382046128673 0.1453090347403941 0.9820061328823659 1.2269216706792085 10.608789486874755" Properties=species:S:1:pos:R:3:initial_magmoms:R:1:castep_labels:S:1 n_minim_iter=5 pbc="T T T"
P        2.27268287       2.33092510       9.54109409       0.00000000 NULL
P        3.46694465       1.52686230       5.65850371       0.00000000 NULL
P        1.90771996       6.14812970       7.10223487       0.00000000 NULL
P        1.24178393       3.25384548       3.88101078       0.00000000 NULL
P        2.00983652       1.60378745       7.23694655       0.00000000 NULL
P        1.60909924       1.11147873       1.41712977       0.00000000 NULL
P        0.75052247       2.74068418       0.33636947       0.00000000 NULL
P        3.27891026       3.82441269       8.44154554       0.00000000 NULL
8
Lattice="2.8402871095889797 0.009407934623248246 0.041575814895332214 1.2332706433202956 6.413796984982398 0.19146918797903184 0.9929735027017151 1.3023201294425832 10.838819576745035" Properties=species:S:1:pos:R:3:initial_magmoms:R:1:castep_labels:S:1 n_minim_iter=6 pbc="T T T"
P        2.23350314       2.39874929       9.77432274       0.00000000 NULL
P        3.39609909       1.58776712       5.76569968       0.00000000 NULL
P        1.89365133       6.23772884       7.29475459       0.00000000 NULL
P        1.22670070       3.29388665       3.99330803       0.00000000 NULL
P        1.97930232       1.66395351       7.40923492       0.00000000 NULL
P        1.57884449       1.13319166       1.45544292       0.00000000 NULL
P        0.73151982       2.76968885       0.36624323       0.00000000 NULL
P        3.23568416       3.90857434       8.64860353       0.00000000 NULL
8
Lattice="2.6323714704562797 0.04967880311533885 0.07532654644318157 1.2301688245329958 6.599554104156044 0.3459849039086988 1.0579556980300917 1.5626782072835839 11.627897922970183" Properties=species:S:1:pos:R:3:initial_magmoms:R:1:castep_labels:S:1 n_minim_iter=7 pbc="T T T"
P        2.17783524       2.65504761      10.58002324       0.00000000 NULL
P        3.25683985       1.79777385       6.14185667       0.00000000 NULL
P        1.90778626       6.58705901       7.94635029       0.00000000 NULL
P        1.21323202       3.45513974       4.37767031       0.00000000 NULL
P        1.93438439       1.88387098       7.98947417       0.00000000 NULL
P        1.51522336       1.20989278       1.58574301       0.00000000 NULL
P        0.70297073       2.88611492       0.46709320       0.00000000 NULL
P        3.17534621       4.21394137       9.35712603       0.00000000 NULL
8
Lattice="2.8397720088195153 0.05268147532101529 0.12245579473895185 1.3251520737363855 6.569068406667865 0.38341370284778065 1.2795258529891216 1.5858254541729584 11.49878187454911" Properties=species:S:1:pos:R:3:initial_magmoms:R:1:castep_labels:S:1 n_minim_iter=8 pbc="T T T"
P        2.47169498       2.67876602      10.51245006       0.00000000 NULL
P        3.59305880       1.81197461       6.10454469       0.00000000 NULL
P        2.14538380       6.57634385       7.89265592       0.00000000 NULL
P        1.35151861       3.44196471       4.36175208       0.00000000 NULL
P        2.17953841       1.90472273       7.92704388       0.00000000 NULL
P        1.64969090       1.20540945       1.59171412       0.00000000 NULL
P        0.76682162       2.87329926       0.47922042       0.00000000 NULL
P        3.53374122       4.21578613       9.30104540       0.00000000 NULL
8
Lattice="2.7382935869934437 0.05078378494435939 0.12048552756777604 1.2777659431443058 6.431941067445803 0.42169723756014055 1.241886791859059 1.6252743125971538 11.283673209093978" Properties=species:S:1:pos:R:3:initial_magmoms:R:1:castep_labels:S:1 n_minim_iter=9 pbc="T T T"
P        2.38894810       2.69305578      10.33040835       0.00000000 NULL
P        3.47179884       1.81073116       5.99672830       0.00000000 NULL
P        2.07361585       6.49144240       7.78299667       0.00000000 NULL
P        1.30461887       3.39456317       4.30191952       0.00000000 NULL
P        2.10567211       1.91229558       7.77933751       0.00000000 NULL
P        1.59291190       1.19154047       1.56403829       0.00000000 NULL
P        0.73890636       2.81106711       0.48955798       0.00000000 NULL
P        3.41554516       4.18017389       9.15055107       0.00000000 NULL
8
Lattice="2.747227195548099 0.05065012487831911 0.12317989780539085 1.2812975163989213 6.482277139906737 0.3936506515628403 1.2535751475351569 1.58716206222885 11.325142506898015" Properties=species:S:1:pos:R:3:initial_magmoms:R:1:castep_labels:S:1 n_minim_iter=10 pbc="T T T"
P        2.40168698       2.66732637      10.36856748       0.00000000 NULL
P        3.48888881       1.79872455       6.01313845       0.00000000 NULL
P        2.08466435       6.50921284       7.78736113       0.00000000 NULL
P        1.31035110       3.40220323       4.30580525       0.00000000 NULL
P        2.11682076       1.89308629       7.80362839       0.00000000 NULL
P        1.60037289       1.19229706       1.56660906       0.00000000 NULL
P        0.74034335       2.83401262       0.47807970       0.00000000 NULL
P        3.43393273       4.17138336       9.17199892       0.00000000 NULL
8
Lattice="2.739198238411385 0.05062934046120171 0.12508799366388765 1.2778236582187035 6.492132896113548 0.387975234942799 1.2575818020249714 1.5784786556569987 11.320249758436288" Properties=species:S:1:pos:R:3:initial_magmoms:R:1:castep_labels:S:1 n_minim_iter=11 pbc="T T T"
P        2.40019119       2.66157868      10.36845959       0.00000000 NULL
P        3.48472748       1.79590994       6.00865059       0.00000000 NULL
P        2.08358414       6.51279288       7.77961951       0.00000000 NULL
P        1.30833931       3.40261596       4.30276561       0.00000000 NULL
P        2.11502341       1.88889492       7.79857122       0.00000000 NULL
P        1.59765425       1.19193992       1.56514910       0.00000000 NULL
P        0.73803806       2.83900130       0.47545033       0.00000000 NULL
P        3.43122152       4.16731209       9.16694039       0.00000000 NULL
8
Lattice="2.7274507858582457 0.05055941395937522 0.1300098738834162 1.272656828593065 6.5190210049655795 0.3806713858576227 1.2705935092875216 1.567900852981865 11.31553062731755" Properties=species:S:1:pos:R:3:initial_magmoms:R:1:castep_labels:S:1 n_minim_iter=12 pbc="T T T"
P        2.40309300       2.65755254      10.37687013       0.00000000 NULL
P        3.48475422       1.79480824       6.00175190       0.00000000 NULL
P        2.08629431       6.53087524       7.77085684       0.00000000 NULL
P        1.30662245       3.40850229       4.30115483       0.00000000 NULL
P        2.11628897       1.88662990       7.79193579       0.00000000 NULL
P        1.59526446       1.19283940       1.56337104       0.00000000 NULL
P        0.73461251       2.85296987       0.47246662       0.00000000 NULL
P        3.43392562       4.16674336       9.16321794       0.00000000 NULL
