9
Lattice="5.82588 -1.0838749575193268e-15 1.0976787613467196e-15 0.3795636142425677 5.813502321074888 -4.1066353786454076e-16 0.37956361424256746 0.3555900415129431 5.802617078484494" Properties=species:S:1:pos:R:3:initial_magmoms:R:1:castep_labels:S:1 n_minim_iter=1 pbc="T T T"
P        5.29100624       4.19944460       2.01562782       0.00000000 NULL
P        2.60861373       5.13195505       4.06829316       0.00000000 NULL
P        4.53523834       2.31806205       4.87350377       0.00000000 NULL
P        1.86410026       1.75891033       0.11018299       0.00000000 NULL
P        0.33854891       1.84596531       1.74887745       0.00000000 NULL
P        1.87662188       0.21674507       1.73553666       0.00000000 NULL
P        4.34019317       1.97303252       2.87125621       0.00000000 NULL
P        3.26298695       4.13639355       1.79371427       0.00000000 NULL
P        2.25160980       3.12292665       4.01893379       0.00000000 NULL
9
Lattice="5.8307382678055 -0.00045143612519817896 -0.00042461853639791 0.37942965966842 5.818379678639918 -0.000424618536399622 0.3794296596684196 0.3554645476278744 5.807511275967578" Properties=species:S:1:pos:R:3:initial_magmoms:R:1:castep_labels:S:1 n_minim_iter=2 pbc="T T T"
P        5.29514717       4.20242091       2.01669583       0.00000000 NULL
P        2.61012892       5.13600587       4.07119857       0.00000000 NULL
P        4.53847811       2.31936895       4.87736929       0.00000000 NULL
P        1.86560374       1.76020909       0.11005231       0.00000000 NULL
P        0.33859598       1.84746891       1.75018178       0.00000000 NULL
P        1.87801584       0.21670123       1.73695767       0.00000000 NULL
P        4.34333176       1.97409647       2.87313069       0.00000000 NULL
P        3.26512337       4.13939934       1.79466157       0.00000000 NULL
P        2.25287597       3.12498494       4.02187600       0.00000000 NULL
9
Lattice="6.002592278128356 -0.016194705573134776 -0.015232658163715345 0.3749163493708057 5.990894261870195 -0.015232658163716778 0.37491634937080554 0.3512363019903358 5.980608593692462" Properties=species:S:1:pos:R:3:initial_magmoms:R:1:castep_labels:S:1 n_minim_iter=3 pbc="T T T"
P        5.44202695       4.30784582       2.05481934       0.00000000 NULL
P        2.66410436       5.27967432       4.17409421       0.00000000 NULL
P        4.65324844       2.36596595       5.01447500       0.00000000 NULL
P        1.91898870       1.80616546       0.10560379       0.00000000 NULL
P        0.34044832       1.90084660       1.79632420       0.00000000 NULL
P        1.92735267       0.21533631       1.78741305       0.00000000 NULL
P        4.45442027       2.01198199       2.93953906       0.00000000 NULL
P        3.34081652       4.24578236       1.82841420       0.00000000 NULL
P        2.29791856       3.19789843       4.12599531       0.00000000 NULL
9
Lattice="6.013824692951372 -0.0002404976383505087 -0.00022621086240869393 0.3915684673043491 6.001063375003109 -0.00022621086240937226 0.39156846730434963 0.36683665746456456 5.9898407782440515" Properties=species:S:1:pos:R:3:initial_magmoms:R:1:castep_labels:S:1 n_minim_iter=4 pbc="T T T"
P        5.47171572       4.33120753       2.08243947       0.00000000 NULL
P        2.69497437       5.30741080       4.19572276       0.00000000 NULL
P        4.67849478       2.39525335       5.04083660       0.00000000 NULL
P        1.93078968       1.81336978       0.11613992       0.00000000 NULL
P        0.35215095       1.91190865       1.80287056       0.00000000 NULL
P        1.93531052       0.22654429       1.79805397       0.00000000 NULL
P        4.47258955       2.03398041       2.95685243       0.00000000 NULL
P        3.36058721       4.26269949       1.84931244       0.00000000 NULL
P        2.32105399       3.21620070       4.14160251       0.00000000 NULL
