8
Lattice="5.0953899999999885 3.1540567466454284e-07 2.7425624268182424e-31 -2.5476952930424286 4.7341108914709595 -1.446406514728198e-17 5.128226432689054e-08 -0.8284668216781748 7.488220256741814" Properties=species:S:1:pos:R:3:initial_magmoms:R:1:castep_labels:S:1 n_minim_iter=1 pbc="T T T"
P        4.06826834       1.22514071       1.66589163       0.00000000 NULL
P        1.02712201       1.22514052       1.66589163       0.00000000 NULL
P        3.56831123       1.16931105       4.31748540       0.00000000 NULL
P        1.52707913       1.16931092       4.31748540       0.00000000 NULL
P       -1.02976187       1.71828931       7.36108301       0.00000000 NULL
P        1.02976216       1.71828943       7.36108301       0.00000000 NULL
P       -1.01040024       3.09750291       4.77133220       0.00000000 NULL
P        1.01040036       3.09750303       4.77133220       0.00000000 NULL
8
Lattice="5.104825931882438 3.1598976075979336e-07 -5.483010010930797e-19 -2.5524132592130035 4.737816052382013 0.0006628424155838392 5.125750081367538e-08 -0.8280667662384111 7.485467588371411" Properties=species:S:1:pos:R:3:initial_magmoms:R:1:castep_labels:S:1 n_minim_iter=2 pbc="T T T"
P        4.07561097       1.22630457       1.66553577       0.00000000 NULL
P        1.02921532       1.22630438       1.66553577       0.00000000 NULL
P        3.57509384       1.17064491       4.31601624       0.00000000 NULL
P        1.52973245       1.17064478       4.31601624       0.00000000 NULL
P       -1.03184642       1.72069368       7.35871966       0.00000000 NULL
P        1.03184671       1.72069381       7.35871966       0.00000000 NULL
P       -1.01245684       3.10078039       4.77015137       0.00000000 NULL
P        1.01245696       3.10078052       4.77015137       0.00000000 NULL
8
Lattice="5.311605956947894 3.2878948625337943e-07 5.5275349527540695e-18 -2.6558032768352846 4.820037960321129 0.01548323051238437 5.069708827758526e-08 -0.819013281461792 7.422730240179875" Properties=species:S:1:pos:R:3:initial_magmoms:R:1:castep_labels:S:1 n_minim_iter=3 pbc="T T T"
P        4.23638435       1.25215963       1.65730945       0.00000000 NULL
P        1.07522197       1.25215943       1.65730945       0.00000000 NULL
P        3.72386741       1.20029704       4.28249683       0.00000000 NULL
P        1.58773892       1.20029691       4.28249683       0.00000000 NULL
P       -1.07764478       1.77423939       7.30470526       0.00000000 NULL
P        1.07764509       1.77423952       7.30470526       0.00000000 NULL
P       -1.05765763       3.17366729       4.74298137       0.00000000 NULL
P        1.05765777       3.17366742       4.74298137       0.00000000 NULL
8
Lattice="5.3537596113195765 3.313988059920885e-07 -3.6257417583807665e-18 -2.6768801075733175 4.877423749485701 0.030945539046771938 4.98047871976911e-08 -0.8045981256205337 7.318039575925167" Properties=species:S:1:pos:R:3:initial_magmoms:R:1:castep_labels:S:1 n_minim_iter=4 pbc="T T T"
P        4.26849120       1.27178231       1.64021443       0.00000000 NULL
P        1.08526878       1.27178211       1.64021443       0.00000000 NULL
P        3.75572960       1.22550283       4.22504671       0.00000000 NULL
P        1.59803039       1.22550270       4.22504671       0.00000000 NULL
P       -1.08740875       1.81983915       7.20960109       0.00000000 NULL
P        1.08740906       1.81983928       7.20960109       0.00000000 NULL
P       -1.06806376       3.22980881       4.68945491       0.00000000 NULL
P        1.06806389       3.22980895       4.68945491       0.00000000 NULL
8
Lattice="5.363925246401286 3.3202806085535303e-07 1.4828636963871204e-19 -2.681962929544675 4.948998679471422 0.044732364332789154 4.923023853561913e-08 -0.7953162712430757 7.143997181371327" Properties=species:S:1:pos:R:3:initial_magmoms:R:1:castep_labels:S:1 n_minim_iter=5 pbc="T T T"
P        4.27504435       1.29345858       1.60868399       0.00000000 NULL
P        1.08888127       1.29345838       1.60868399       0.00000000 NULL
P        3.76643569       1.25227162       4.12604477       0.00000000 NULL
P        1.59748993       1.25227149       4.12604477       0.00000000 NULL
P       -1.09053918       1.86911706       7.04449730       0.00000000 NULL
P        1.09053948       1.86911719       7.04449730       0.00000000 NULL
P       -1.07289747       3.29385475       4.59087575       0.00000000 NULL
P        1.07289759       3.29385488       4.59087575       0.00000000 NULL
8
Lattice="5.3504790729556175 3.311957399963899e-07 -3.274175608793997e-17 -2.675239848285144 5.037258540189677 0.03643812102416543 5.09984126148219e-08 -0.8238811877183274 6.872095523219977" Properties=species:S:1:pos:R:3:initial_magmoms:R:1:castep_labels:S:1 n_minim_iter=6 pbc="T T T"
P        4.26173607       1.30808047       1.55208102       0.00000000 NULL
P        1.08874338       1.30808027       1.55208102       0.00000000 NULL
P        3.76385770       1.26330305       3.96173240       0.00000000 NULL
P        1.58662175       1.26330292       3.96173240       0.00000000 NULL
P       -1.08965488       1.89380643       6.76888466       0.00000000 NULL
P        1.08965518       1.89380657       6.76888466       0.00000000 NULL
P       -1.07539369       3.34619623       4.41346474       0.00000000 NULL
P        1.07539380       3.34619637       4.41346474       0.00000000 NULL
8
Lattice="5.351923796618363 3.3128516866706867e-07 -3.4030408978877775e-17 -2.675962216187819 5.13534065460952 -0.019605227334256386 5.7548157075856566e-08 -0.9296925446687563 6.59303096120195" Properties=species:S:1:pos:R:3:initial_magmoms:R:1:castep_labels:S:1 n_minim_iter=7 pbc="T T T"
P        4.25820920       1.30040210       1.48237260       0.00000000 NULL
P        1.09371496       1.30040190       1.48237260       0.00000000 NULL
P        3.77606267       1.23579642       3.77716094       0.00000000 NULL
P        1.57586150       1.23579629       3.77716094       0.00000000 NULL
P       -1.09419513       1.85521974       6.45745970       0.00000000 NULL
P        1.09419543       1.85521988       6.45745970       0.00000000 NULL
P       -1.08418409       3.35489263       4.19496268       0.00000000 NULL
P        1.08418420       3.35489277       4.19496268       0.00000000 NULL
8
Lattice="5.254964721468575 3.252833822789831e-07 3.528025803499393e-17 -2.627482684855956 5.23619705107939 -0.08280820670169567 6.482896184640288e-08 -1.0473142059151768 6.207361447114281" Properties=species:S:1:pos:R:3:initial_magmoms:R:1:castep_labels:S:1 n_minim_iter=8 pbc="T T T"
P        4.17512367       1.27291166       1.38550879       0.00000000 NULL
P        1.07984141       1.27291147       1.38550879       0.00000000 NULL
P        3.72692378       1.20744729       3.53065648       0.00000000 NULL
P        1.52804132       1.20744716       3.53065648       0.00000000 NULL
P       -1.08152470       1.82251561       6.03468947       0.00000000 NULL
P        1.08152499       1.82251575       6.03468947       0.00000000 NULL
P       -1.07835471       3.35518896       3.90505591       0.00000000 NULL
P        1.07835481       3.35518909       3.90505591       0.00000000 NULL
8
Lattice="5.4112442827381635 3.3495711872337874e-07 2.53732098592675e-17 -2.705622468928693 5.291737133857903 -0.07289927017363068 6.446040435808477e-08 -1.041360146308842 6.285947472996044" Properties=species:S:1:pos:R:3:initial_magmoms:R:1:castep_labels:S:1 n_minim_iter=9 pbc="T T T"
P        4.29443768       1.27586886       1.40128569       0.00000000 NULL
P        1.11680699       1.27586866       1.40128569       0.00000000 NULL
P        3.84406402       1.23073323       3.58367827       0.00000000 NULL
P        1.56718064       1.23073309       3.58367827       0.00000000 NULL
P       -1.12107308       1.87156451       6.11541420       0.00000000 NULL
P        1.12107339       1.87156465       6.11541420       0.00000000 NULL
P       -1.11850286       3.40240479       3.96493766       0.00000000 NULL
P        1.11850298       3.40240492       3.96493766       0.00000000 NULL
8
Lattice="5.300414167248298 3.2809671214382086e-07 5.424593766149082e-17 -2.6502074090901364 5.257914560565427 -0.05493674893152179 6.233528979798386e-08 -1.007028843900109 6.229209553797835" Properties=species:S:1:pos:R:3:initial_magmoms:R:1:castep_labels:S:1 n_minim_iter=10 pbc="T T T"
P        4.20780928       1.26995235       1.39218707       0.00000000 NULL
P        1.09260525       1.26995215       1.39218707       0.00000000 NULL
P        3.76622187       1.24059679       3.55830017       0.00000000 NULL
P        1.53419267       1.24059665       3.55830017       0.00000000 NULL
P       -1.09715793       1.89056115       6.06918568       0.00000000 NULL
P        1.09715822       1.89056128       6.06918568       0.00000000 NULL
P       -1.09584654       3.39668424       3.94334269       0.00000000 NULL
P        1.09584664       3.39668437       3.94334269       0.00000000 NULL
8
Lattice="5.289714451789516 3.274343975828924e-07 5.092792868762782e-17 -2.644857551488012 5.259970554645924 -0.044192908777813456 6.130561938648157e-08 -0.9903944814930371 6.213214101627466" Properties=species:S:1:pos:R:3:initial_magmoms:R:1:castep_labels:S:1 n_minim_iter=11 pbc="T T T"
P        4.19853603       1.26907298       1.38987912       0.00000000 NULL
P        1.09117879       1.26907279       1.38987912       0.00000000 NULL
P        3.76032689       1.25174504       3.55428698       0.00000000 NULL
P        1.52938793       1.25174490       3.55428698       0.00000000 NULL
P       -1.09630380       1.91279048       6.05889063       0.00000000 NULL
P        1.09630409       1.91279062       6.05889063       0.00000000 NULL
P       -1.09562776       3.40843032       3.94217394       0.00000000 NULL
P        1.09562786       3.40843045       3.94217394       0.00000000 NULL
8
Lattice="5.286339525785794 3.272254889822871e-07 5.116175270311765e-17 -2.6431700887649896 5.264475204536362 -0.035326100201424356 6.048625640792035e-08 -0.9771576431399647 6.20119002779818" Properties=species:S:1:pos:R:3:initial_magmoms:R:1:castep_labels:S:1 n_minim_iter=12 pbc="T T T"
P        4.19498010       1.26846421       1.38802541       0.00000000 NULL
P        1.09135979       1.26846402       1.38802541       0.00000000 NULL
P        3.75945186       1.26168544       3.55183665       0.00000000 NULL
P        1.52688803       1.26168530       3.55183665       0.00000000 NULL
P       -1.09698304       1.93269928       6.05154355       0.00000000 NULL
P        1.09698333       1.93269941       6.05154355       0.00000000 NULL
P       -1.09683380       3.41998083       3.94199437       0.00000000 NULL
P        1.09683390       3.41998097       3.94199437       0.00000000 NULL
8
Lattice="5.25949508574192 3.255638126926823e-07 4.4675532270759883e-17 -2.629747870648247 5.295253700324535 0.02053331314996549 5.535040395548039e-08 -0.8941877624983176 6.121996818543055" Properties=species:S:1:pos:R:3:initial_magmoms:R:1:castep_labels:S:1 n_minim_iter=13 pbc="T T T"
P        4.16783196       1.26328914       1.37465242       0.00000000 NULL
P        1.09166349       1.26328895       1.37465242       0.00000000 NULL
P        3.74983742       1.32550099       3.53495054       0.00000000 NULL
P        1.50965802       1.32550085       3.53495054       0.00000000 NULL
P       -1.10033177       2.06057754       6.00235955       0.00000000 NULL
P        1.10033204       2.06057767       6.00235955       0.00000000 NULL
P       -1.10357631       3.49409349       3.93857529       0.00000000 NULL
P        1.10357640       3.49409362       3.93857529       0.00000000 NULL
8
Lattice="5.245085024746298 3.246718269748097e-07 3.8705094702457937e-17 -2.622542844801123 5.370385719265167 0.06668016229381471 5.164597963707453e-08 -0.8343426547193822 6.063079741360298" Properties=species:S:1:pos:R:3:initial_magmoms:R:1:castep_labels:S:1 n_minim_iter=14 pbc="T T T"
P        4.14369770       1.23643793       1.35191440       0.00000000 NULL
P        1.10138769       1.23643775       1.35191440       0.00000000 NULL
P        3.75166464       1.39866261       3.53510543       0.00000000 NULL
P        1.49342073       1.39866247       3.53510543       0.00000000 NULL
P       -1.11349082       2.21525799       5.96979612       0.00000000 NULL
P        1.11349107       2.21525813       5.96979612       0.00000000 NULL
P       -1.12180130       3.58411964       3.94100791       0.00000000 NULL
P        1.12180137       3.58411977       3.94100791       0.00000000 NULL
8
Lattice="5.150261720999408 3.1880224520635264e-07 3.607479166992467e-17 -2.5751311888585753 5.3046492246015715 0.09291243085170423 4.836545683021738e-08 -0.7813456908917455 5.932681415867821" Properties=species:S:1:pos:R:3:initial_magmoms:R:1:castep_labels:S:1 n_minim_iter=15 pbc="T T T"
P        4.06771173       1.22232477       1.32585905       0.00000000 NULL
P        1.08255034       1.22232459       1.32585905       0.00000000 NULL
P        3.68548887       1.40968497       3.47142884       0.00000000 NULL
P        1.46477318       1.40968483       3.47142884       0.00000000 NULL
P       -1.09446476       2.23764164       5.85825586       0.00000000 NULL
P        1.09446499       2.23764177       5.85825586       0.00000000 NULL
P       -1.10397110       3.56508917       3.87787407       0.00000000 NULL
P        1.10397116       3.56508930       3.87787407       0.00000000 NULL
8
Lattice="5.223872865191222 3.2335878996781064e-07 1.7397354545709012e-17 -2.6119367634691253 5.3452733681378914 0.08707951142019955 4.937662588923871e-08 -0.7976811637199223 5.987651839472775" Properties=species:S:1:pos:R:3:initial_magmoms:R:1:castep_labels:S:1 n_minim_iter=16 pbc="T T T"
P        4.12401361       1.22502932       1.33454694       0.00000000 NULL
P        1.09985962       1.22502914       1.33454694       0.00000000 NULL
P        3.73904624       1.41441077       3.50247296       0.00000000 NULL
P        1.48482696       1.41441063       3.50247296       0.00000000 NULL
P       -1.11239147       2.24790330       5.90956732       0.00000000 NULL
P        1.11239171       2.24790344       5.90956732       0.00000000 NULL
P       -1.12173884       3.58694883       3.90846395       0.00000000 NULL
P        1.12173891       3.58694897       3.90846395       0.00000000 NULL
8
Lattice="5.212894674047799 3.2267923771259475e-07 1.5268484279059046e-17 -2.606447668074159 5.3481286887430635 0.08883881416237349 4.9235300756276954e-08 -0.7953980511747644 5.984552221549538" Properties=species:S:1:pos:R:3:initial_magmoms:R:1:castep_labels:S:1 n_minim_iter=17 pbc="T T T"
P        4.11484626       1.22313096       1.33286677       0.00000000 NULL
P        1.09804878       1.22313077       1.33286677       0.00000000 NULL
P        3.73157257       1.41734416       3.50220919       0.00000000 NULL
P        1.48132244       1.41734402       3.50220919       0.00000000 NULL
P       -1.11071930       2.25431876       5.90812399       0.00000000 NULL
P        1.11071954       2.25431890       5.90812399       0.00000000 NULL
P       -1.12031032       3.59057935       3.90777683       0.00000000 NULL
P        1.12031039       3.59057949       3.90777683       0.00000000 NULL
