8
Lattice="3.99652 2.5041137974754906e-15 2.9686993676992896e-15 1.319322844930758 4.728109288472912 -3.510266162515821e-15 1.799930657730398 -0.35652980574884596 9.195628160874863" Properties=species:S:1:pos:R:3:initial_magmoms:R:1:castep_labels:S:1 n_minim_iter=1 pbc="T T T"
P        2.83692627       0.22614773       8.26504622       0.00000000 NULL
P        2.08634950       2.50233439       0.28511229       0.00000000 NULL
P        4.79320956       0.36548325       8.75843305       0.00000000 NULL
P        1.34459775       2.41588380       3.22896115       0.00000000 NULL
P        5.95508933       1.99341095       8.86736998       0.00000000 NULL
P        3.45218126       4.04830590       4.30464090       0.00000000 NULL
P        5.26968575       3.45648755       5.06023923       0.00000000 NULL
P        2.97593758       2.14200919       2.05852872       0.00000000 NULL
8
Lattice="4.008792430893385 0.00037878320422924744 0.0007251985281344172 1.3238223161774216 4.733775269430615 0.0016334364381244575 1.8070926719615785 -0.35406579538911687 9.208203781443697" Properties=species:S:1:pos:R:3:initial_magmoms:R:1:castep_labels:S:1 n_minim_iter=2 pbc="T T T"
P        2.84706563       0.22886877       8.27637926       0.00000000 NULL
P        2.09310384       2.50579771       0.28661906       0.00000000 NULL
P        4.80953822       0.36856320       8.77135075       0.00000000 NULL
P        1.34928651       2.41973491       3.23430165       0.00000000 NULL
P        5.97513664       1.99935428       8.88075341       0.00000000 NULL
P        3.46379910       4.05478975       4.31213096       0.00000000 NULL
P        5.28729463       3.46246305       5.06921342       0.00000000 NULL
P        2.98596078       2.14534878       2.06270192       0.00000000 NULL
8
Lattice="4.383600064502375 0.013522890504756808 0.023887073929744766 1.4631032529151533 4.904298717895658 0.05155813510370851 2.028017245881728 -0.27845048239722114 9.584574323634433" Properties=species:S:1:pos:R:3:initial_magmoms:R:1:castep_labels:S:1 n_minim_iter=3 pbc="T T T"
P        3.15861442       0.31232817       8.61568539       0.00000000 NULL
P        2.30062813       2.61077960       0.33285706       0.00000000 NULL
P        5.31051807       0.46383883       9.15918964       0.00000000 NULL
P        1.49381603       2.53612913       3.39464871       0.00000000 NULL
P        6.59044712       2.18122558       9.28305731       0.00000000 NULL
P        3.82114322       4.25118386       4.53772309       0.00000000 NULL
P        5.82803119       3.64457429       5.33982039       0.00000000 NULL
P        3.29391012       2.24717637       2.18915009       0.00000000 NULL
8
Lattice="4.507005339163621 0.05422320046647736 0.050183622123091555 1.55199231430338 4.987394383128877 0.06663533382171387 2.1404709162460374 -0.2529329499556665 9.677900803785613" Properties=species:S:1:pos:R:3:initial_magmoms:R:1:castep_labels:S:1 n_minim_iter=4 pbc="T T T"
P        3.29903803       0.35163132       8.70111687       0.00000000 NULL
P        2.39585717       2.67327893       0.35424115       0.00000000 NULL
P        5.51789199       0.52442756       9.27265180       0.00000000 NULL
P        1.57686230       2.58935445       3.43615816       0.00000000 NULL
P        6.85452628       2.28889576       9.40009155       0.00000000 NULL
P        3.99792471       4.35226989       4.60424771       0.00000000 NULL
P        6.06146618       3.75496534       5.42289312       0.00000000 NULL
P        3.42347699       2.31274072       2.23679065       0.00000000 NULL
8
Lattice="4.567287036284728 0.1164461316020155 0.0864799747023165 1.645505630588806 5.049124755530315 0.07551370686660548 2.2455839413558816 -0.23405162475197602 9.681088538206321" Properties=species:S:1:pos:R:3:initial_magmoms:R:1:castep_labels:S:1 n_minim_iter=5 pbc="T T T"
P        3.41524169       0.38845839       8.70743859       0.00000000 NULL
P        2.47458991       2.73104324       0.37400990       0.00000000 NULL
P        5.67222031       0.59245312       9.30674830       0.00000000 NULL
P        1.65985681       2.62905521       3.44294131       0.00000000 NULL
P        7.05835410       2.39733803       9.43585531       0.00000000 NULL
P        4.15587406       4.43795866       4.62838077       0.00000000 NULL
P        6.24148442       3.86277792       5.45623138       0.00000000 NULL
P        3.52034754       2.37813885       2.26664187       0.00000000 NULL
8
Lattice="4.587798961744303 0.19958116836282175 0.1285439085191251 1.7506304370100456 5.107739703770449 0.08408475261787249 2.3441907841439837 -0.2092972741149159 9.641032393175326" Properties=species:S:1:pos:R:3:initial_magmoms:R:1:castep_labels:S:1 n_minim_iter=6 pbc="T T T"
P        3.51489033       0.43490222       8.67594703       0.00000000 NULL
P        2.54842441       2.79494423       0.39509913       0.00000000 NULL
P        5.79207861       0.68126195       9.30372284       0.00000000 NULL
P        1.74550587       2.66930791       3.43483483       0.00000000 NULL
P        7.22678539       2.52824731       9.43483315       0.00000000 NULL
P        4.30988044       4.53051660       4.63535542       0.00000000 NULL
P        6.39311968       3.98858425       5.46810807       0.00000000 NULL
P        3.60113415       2.45393027       2.28954589       0.00000000 NULL
8
Lattice="4.609710028217284 0.3600846911650029 0.19586834204732212 1.9477484215436525 5.238411965942066 0.10918045172369199 2.494647823605439 -0.1372855174904432 9.603990662071627" Properties=species:S:1:pos:R:3:initial_magmoms:R:1:castep_labels:S:1 n_minim_iter=7 pbc="T T T"
P        3.66613940       0.54621894       8.65010494       0.00000000 NULL
P        2.68105847       2.93040237       0.43660822       0.00000000 NULL
P        5.97088666       0.87767259       9.32540059       0.00000000 NULL
P        1.89049249       2.76445605       3.43864593       0.00000000 NULL
P        7.49493431       2.81422481       9.46545858       0.00000000 NULL
P        4.57881001       4.73649989       4.66979627       0.00000000 NULL
P        6.64380391       4.25878804       5.51048930       0.00000000 NULL
P        3.73966410       2.61318933       2.33693571       0.00000000 NULL
8
Lattice="4.605579347000791 0.48381970032459704 0.22560979132851872 2.092770326606728 5.371830820761002 0.12187367197698114 2.550181425343079 -0.08294731524549738 9.592936333819035" Properties=species:S:1:pos:R:3:initial_magmoms:R:1:castep_labels:S:1 n_minim_iter=8 pbc="T T T"
P        3.72322786       0.63374586       8.64183492       0.00000000 NULL
P        2.77014333       3.05385031       0.45692764       0.00000000 NULL
P        6.03308563       1.02912609       9.33911642       0.00000000 NULL
P        1.97428079       2.85513256       3.44643337       0.00000000 NULL
P        7.62242995       3.05339276       9.48502176       0.00000000 NULL
P        4.74541754       4.92424574       4.68946106       0.00000000 NULL
P        6.77983575       4.49128554       5.53159917       0.00000000 NULL
P        3.82250612       2.75028557       2.35956759       0.00000000 NULL
8
Lattice="4.5964665949732435 0.6900661549520943 0.2601392455873012 2.3337632694441846 5.606022895803075 0.10916528347323375 2.6071271410673265 -0.04947035383246548 9.576811917649326" Properties=species:S:1:pos:R:3:initial_magmoms:R:1:castep_labels:S:1 n_minim_iter=9 pbc="T T T"
P        3.78756545       0.73304633       8.62631004       0.00000000 NULL
P        2.91433951       3.26284873       0.46425927       0.00000000 NULL
P        6.09846585       1.22388683       9.34678956       0.00000000 NULL
P        2.10015372       2.99203277       3.44493730       0.00000000 NULL
P        7.80081314       3.40681942       9.49060797       0.00000000 NULL
P        5.00346021       5.22229622       4.68524314       0.00000000 NULL
P        6.98473556       4.85526160       5.53189903       0.00000000 NULL
P        3.95372752       2.97104011       2.37184813       0.00000000 NULL
8
Lattice="4.584410430482274 1.0099573654849576 0.3264676782132139 2.708232715508787 5.964495578598416 0.0005851378364167999 2.7257755130728594 -0.1782290764201719 9.577504460450994" Properties=species:S:1:pos:R:3:initial_magmoms:R:1:castep_labels:S:1 n_minim_iter=10 pbc="T T T"
P        3.91965255       0.73532561       8.62563183       0.00000000 NULL
P        3.13722470       3.57561472       0.42453223       0.00000000 NULL
P        6.22493430       1.33630005       9.37946271       0.00000000 NULL
P        2.29559503       3.12900241       3.41140864       0.00000000 NULL
P        8.10972362       3.79056327       9.48923898       0.00000000 NULL
P        5.41424615       5.59709897       4.60819720       0.00000000 NULL
P        7.33040374       5.31729021       5.49677709       0.00000000 NULL
P        4.17520254       3.27490698       2.35668491       0.00000000 NULL
8
Lattice="4.735788551458258 1.0101336221394732 0.35552266202937505 2.758413866598153 6.178622696906063 -0.01722464918841571 2.8607895021176155 -0.247584352882585 9.67144642278444" Properties=species:S:1:pos:R:3:initial_magmoms:R:1:castep_labels:S:1 n_minim_iter=11 pbc="T T T"
P        4.08452626       0.69435327       8.71074774       0.00000000 NULL
P        3.23358270       3.69879784       0.43095559       0.00000000 NULL
P        6.47179360       1.28168820       9.48878608       0.00000000 NULL
P        2.33788541       3.19363087       3.44411471       0.00000000 NULL
P        8.38570518       3.84621439       9.58939882       0.00000000 NULL
P        5.57604998       5.76206930       4.63924669       0.00000000 NULL
P        7.58594696       5.44936486       5.57033187       0.00000000 NULL
P        4.31668697       3.37111556       2.37753882       0.00000000 NULL
8
Lattice="4.578906813456868 0.9940236180891253 0.34345845102623657 2.6875653482157946 6.071324223562219 -0.05987079105707162 2.763812494197922 -0.32234603371621784 9.524296235997182" Properties=species:S:1:pos:R:3:initial_magmoms:R:1:castep_labels:S:1 n_minim_iter=12 pbc="T T T"
P        3.94884559       0.61742577       8.57295910       0.00000000 NULL
P        3.14187395       3.62916657       0.39979892       0.00000000 NULL
P        6.26123316       1.18941065       9.33442145       0.00000000 NULL
P        2.27140245       3.11194758       3.37200071       0.00000000 NULL
P        8.11023240       3.69843283       9.41492291       0.00000000 NULL
P        5.41563990       5.62622537       4.52951309       0.00000000 NULL
P        7.34340536       5.30955341       5.44319433       0.00000000 NULL
P        4.18000930       3.29554865       2.31522586       0.00000000 NULL
