8
Lattice="4.518499999999999 -1.0512743339755596e-15 -2.76969460023527e-16 0.5823587398198407 5.773664612683649 9.140312014500332e-16 1.4082512680136101 2.119089867235947 6.901446295604714" Properties=species:S:1:pos:R:3:initial_magmoms:R:1:castep_labels:S:1 n_minim_iter=1 pbc="T T T"
P        3.51448688       6.58419489       5.38999505       0.00000000 NULL
P        2.03134603       6.49927602       2.92892619       0.00000000 NULL
P        4.06608745       3.59283483       3.05348418       0.00000000 NULL
P        6.20747441       5.78387269       6.74686149       0.00000000 NULL
P        4.05742449       6.56717335       3.25096009       0.00000000 NULL
P        2.96793241       5.84941163       0.56412284       0.00000000 NULL
P        2.33159715       4.18262138       5.45184650       0.00000000 NULL
P        2.07720695       4.68597581       2.02817840       0.00000000 NULL
8
Lattice="4.5188969299728345 0.0001693308019512872 0.00028287529766848625 0.5826262655247954 5.77122331368844 0.0004704544494467356 1.4088864462806008 2.118757379262203 6.900073205997046" Properties=species:S:1:pos:R:3:initial_magmoms:R:1:castep_labels:S:1 n_minim_iter=2 pbc="T T T"
P        3.51533354       6.58183181       5.38957877       0.00000000 NULL
P        2.03177650       6.49701462       2.92885390       0.00000000 NULL
P        4.06664999       3.59173047       3.05329537       0.00000000 NULL
P        6.20868709       5.78216073       6.74601997       0.00000000 NULL
P        4.05842176       6.56483485       3.25102471       0.00000000 NULL
P        2.96852427       5.84713095       0.56445663       0.00000000 NULL
P        2.33235691       4.18141325       5.45103136       0.00000000 NULL
P        2.07768063       4.68381392       2.02820163       0.00000000 NULL
8
Lattice="4.553492117316613 0.0145284997968894 0.02412228404877504 0.6054329127747619 5.565404482265624 0.04026470987106287 1.4628144058197985 2.0909070237384872 6.784405850271458" Properties=species:S:1:pos:R:3:initial_magmoms:R:1:castep_labels:S:1 n_minim_iter=3 pbc="T T T"
P        3.58761782       6.38295935       5.35464420       0.00000000 NULL
P        2.06835064       6.30617723       2.92298494       0.00000000 NULL
P        4.11484603       3.49866618       3.03746329       0.00000000 NULL
P        6.31257950       5.63807403       6.67530895       0.00000000 NULL
P        4.14413852       6.36783567       3.25672526       0.00000000 NULL
P        3.01942483       5.65479877       0.59272716       0.00000000 NULL
P        2.39726895       4.07957460       5.38247829       0.00000000 NULL
P        2.11807264       4.50208390       2.03005760       0.00000000 NULL
8
Lattice="4.607690242208895 0.02535952785259949 0.010763873862223015 0.6262578491733684 5.456401570091756 0.09840701485975063 1.4643822158034148 2.1253206513506644 6.811230863651544" Properties=species:S:1:pos:R:3:initial_magmoms:R:1:castep_labels:S:1 n_minim_iter=4 pbc="T T T"
P        3.62534010       6.31531495       5.43224689       0.00000000 NULL
P        2.08904151       6.23577148       2.99070149       0.00000000 NULL
P        4.15242134       3.47415727       3.06835268       0.00000000 NULL
P        6.38041460       5.61699317       6.72483603       0.00000000 NULL
P        4.21221824       6.29075844       3.31923830       0.00000000 NULL
P        3.07493955       5.56250468       0.62914681       0.00000000 NULL
P        2.42700714       4.06212727       5.42373908       0.00000000 NULL
P        2.14571441       4.40639231       2.07555781       0.00000000 NULL
8
Lattice="4.6200754998017235 0.028727742723627672 -0.008123308792664156 0.6321579500946651 5.3095937677836025 0.13538257319446007 1.440974055561216 2.119436463892537 6.786871642433533" Properties=species:S:1:pos:R:3:initial_magmoms:R:1:castep_labels:S:1 n_minim_iter=5 pbc="T T T"
P        3.61365743       6.18258438       5.44568974       0.00000000 NULL
P        2.08202844       6.10207862       3.01457296       0.00000000 NULL
P        4.14430695       3.40810993       3.06294994       0.00000000 NULL
P        6.37324645       5.52344014       6.70590617       0.00000000 NULL
P        4.22218687       6.15201399       3.33291553       0.00000000 NULL
P        3.09016391       5.42298235       0.64169834       0.00000000 NULL
P        2.42038929       3.99482120       5.41533900       0.00000000 NULL
P        2.14547772       4.28347206       2.08904443       0.00000000 NULL
8
Lattice="4.657477968941328 0.03215985887764113 -0.038627414059935875 0.641364001301776 5.227817326179275 0.18163649441042645 1.4076494108473376 2.1503178308921735 6.810943094583158" Properties=species:S:1:pos:R:3:initial_magmoms:R:1:castep_labels:S:1 n_minim_iter=6 pbc="T T T"
P        3.60771471       6.13512155       5.49894005       0.00000000 NULL
P        2.07925546       6.04655513       3.06728911       0.00000000 NULL
P        4.15192388       3.38773975       3.07548415       0.00000000 NULL
P        6.38226356       5.50786224       6.73030477       0.00000000 NULL
P        4.24582457       6.09300139       3.37057567       0.00000000 NULL
P        3.12066134       5.35012891       0.66136495       0.00000000 NULL
P        2.41293135       3.98365428       5.44633797       0.00000000 NULL
P        2.15113013       4.21886612       2.11868129       0.00000000 NULL
8
Lattice="4.69924482597662 0.03742965814476339 -0.1007129607950123 0.6534807098939727 5.046754181800193 0.25333156701985293 1.3283101037951786 2.1805201269207566 6.799300775198709" Properties=species:S:1:pos:R:3:initial_magmoms:R:1:castep_labels:S:1 n_minim_iter=7 pbc="T T T"
P        3.56649604       6.00116914       5.53761709       0.00000000 NULL
P        2.05850262       5.89927187       3.12722167       0.00000000 NULL
P        4.13647825       3.32311167       3.06356434       0.00000000 NULL
P        6.35226101       5.43082075       6.70543783       0.00000000 NULL
P        4.25710600       5.94131748       3.39722008       0.00000000 NULL
P        3.15665321       5.18148171       0.67711362       0.00000000 NULL
P        2.37682863       3.92975155       5.45382079       0.00000000 NULL
P        2.14615475       4.07680371       2.14453086       0.00000000 NULL
8
Lattice="4.799191441225765 0.05056809944478592 -0.20983182043988335 0.6831502326350647 4.9472924279935695 0.3817929405440533 1.198956011908863 2.3178529229735205 6.819071730206011" Properties=species:S:1:pos:R:3:initial_magmoms:R:1:castep_labels:S:1 n_minim_iter=8 pbc="T T T"
P        3.52194642       6.02358113       5.63188416       0.00000000 NULL
P        2.04185546       5.88269491       3.25490095       0.00000000 NULL
P        4.14304228       3.34825133       3.06136051       0.00000000 NULL
P        6.34178960       5.51944189       6.70253507       0.00000000 NULL
P        4.30219607       5.92668561       3.46527007       0.00000000 NULL
P        3.24153306       5.10548792       0.71717127       0.00000000 NULL
P        2.32563273       3.99753646       5.50142666       0.00000000 NULL
P        2.15217806       4.01897576       2.19995183       0.00000000 NULL
8
Lattice="4.755704425995444 0.05880835752466863 -0.25733658058566 0.6880747525171126 4.80024483895619 0.4189377127704321 1.1167096142389823 2.3177797397517437 6.6492469560341" Properties=species:S:1:pos:R:3:initial_magmoms:R:1:castep_labels:S:1 n_minim_iter=9 pbc="T T T"
P        3.43594735       5.89764643       5.51698446       0.00000000 NULL
P        2.00175284       5.74470104       3.21779018       0.00000000 NULL
P        4.06732001       3.28590884       2.97397981       0.00000000 NULL
P        6.22605198       5.43210398       6.50867700       0.00000000 NULL
P        4.24558626       5.79533503       3.39463106       0.00000000 NULL
P        3.22501035       4.96539149       0.69794364       0.00000000 NULL
P        2.25979625       3.93968226       5.37960884       0.00000000 NULL
P        2.11694688       3.90983312       2.15779805       0.00000000 NULL
8
Lattice="4.836488564764004 0.057545746686394374 -0.28532549134795016 0.6968731275827653 4.866351535644621 0.45524356973504587 1.098545359624429 2.389418363776985 6.706329990201097" Properties=species:S:1:pos:R:3:initial_magmoms:R:1:castep_labels:S:1 n_minim_iter=10 pbc="T T T"
P        3.46050481       6.00813312       5.58413997       0.00000000 NULL
P        2.01394820       5.84378781       3.27679507       0.00000000 NULL
P        4.11729430       3.34705213       2.99864382       0.00000000 NULL
P        6.29391108       5.54454727       6.56039167       0.00000000 NULL
P        4.30120761       5.89452353       3.43995197       0.00000000 NULL
P        3.27856034       5.03667511       0.71510081       0.00000000 NULL
P        2.26995458       4.02459275       5.43513395       0.00000000 NULL
P        2.13585946       3.96911958       2.18888356       0.00000000 NULL
8
Lattice="4.837322062880242 0.05375200242556631 -0.2975693980776864 0.6921329677784697 4.845703671451022 0.46648513133383956 1.078324893764829 2.3961608030132613 6.674436213667003" Properties=species:S:1:pos:R:3:initial_magmoms:R:1:castep_labels:S:1 n_minim_iter=11 pbc="T T T"
P        3.43867883       5.99303489       5.56540599       0.00000000 NULL
P        2.00010846       5.82679846       3.27415779       0.00000000 NULL
P        4.10433746       3.33769044       2.98249156       0.00000000 NULL
P        6.27372359       5.53384618       6.52282493       0.00000000 NULL
P        4.28907053       5.87695195       3.42909991       0.00000000 NULL
P        3.27504281       5.01514526       0.71208578       0.00000000 NULL
P        2.25358905       4.02124663       5.41419169       0.00000000 NULL
P        2.12528324       3.95340757       2.18234093       0.00000000 NULL
8
Lattice="4.853296401985142 0.04822415438504294 -0.31913411542382153 0.6871283988672661 4.8345615434336375 0.4859537530277331 1.0477736351359972 2.417203691126612 6.643182852738938" Properties=species:S:1:pos:R:3:initial_magmoms:R:1:castep_labels:S:1 n_minim_iter=12 pbc="T T T"
P        3.41358656       5.99585265       5.55148975       0.00000000 NULL
P        1.98360224       5.82577470       3.27948869       0.00000000 NULL
P        4.09624113       3.33770203       2.96477952       0.00000000 NULL
P        6.25922686       5.54152840       6.48134679       0.00000000 NULL
P        4.28251654       5.87523815       3.42102623       0.00000000 NULL
P        3.27992371       5.00345195       0.70921588       0.00000000 NULL
P        2.23302128       4.03336168       5.39625283       0.00000000 NULL
P        2.11416715       3.94619158       2.17813550       0.00000000 NULL
8
Lattice="4.9321638140641815 0.017951452944686204 -0.42378419109401966 0.6586111258064444 4.814494770655002 0.5584150236933659 0.8983164438380657 2.5045732428099066 6.515765188260241" Properties=species:S:1:pos:R:3:initial_magmoms:R:1:castep_labels:S:1 n_minim_iter=13 pbc="T T T"
P        3.28803996       6.02625238       5.48312883       0.00000000 NULL
P        1.90022890       5.84583224       3.29232206       0.00000000 NULL
P        4.05746443       3.34435550       2.87904557       0.00000000 NULL
P        6.18821317       5.58212128       6.28933465       0.00000000 NULL
P        4.24456226       5.89037219       3.37125488       0.00000000 NULL
P        3.29958575       4.97612967       0.67883444       0.00000000 NULL
P        2.12786837       4.09458309       5.31822715       0.00000000 NULL
P        2.05768607       3.93225832       2.15109408       0.00000000 NULL
