8
Lattice="3.1768700000000005 0.0 0.0 0.0 6.948540000000002 0.0 0.0 0.0 8.14233" Properties=species:S:1:pos:R:3:initial_magmoms:R:1:castep_labels:S:1 n_minim_iter=1 pbc="T T T"
P        2.52164120       5.75489270       0.86959270       0.00000000 NULL
P        0.65522880       2.28062270       3.20157230       0.00000000 NULL
P        0.93320620       4.66791730       7.27273730       0.00000000 NULL
P        2.24366380       1.19364730       4.94075770       0.00000000 NULL
P        2.26903556       0.81412847       1.23373398       0.00000000 NULL
P        0.90783444       4.28839847       2.83743102       0.00000000 NULL
P        0.68060056       2.66014153       6.90859602       0.00000000 NULL
P        2.49626944       6.13441153       5.30489898       0.00000000 NULL
8
Lattice="3.1762059892061787 0.0 0.0 0.0 6.946413134277733 0.0 0.0 0.0 8.135089592636266" Properties=species:S:1:pos:R:3:initial_magmoms:R:1:castep_labels:S:1 n_minim_iter=2 pbc="T T T"
P        2.52111584       5.75291755       0.86880207       0.00000000 NULL
P        0.65509015       2.27971098       3.19874273       0.00000000 NULL
P        0.93301284       4.66670216       7.26628753       0.00000000 NULL
P        2.24319314       1.19349559       4.93634686       0.00000000 NULL
P        2.26857212       0.81397245       1.23265206       0.00000000 NULL
P        0.90763387       4.28717902       2.83489274       0.00000000 NULL
P        0.68046912       2.65923412       6.90243753       0.00000000 NULL
P        2.49573686       6.13244069       5.30019686       0.00000000 NULL
8
Lattice="3.1295715448158745 0.0 0.0 0.0 6.7989380885369 0.0 0.0 0.0 7.635776835151225" Properties=species:S:1:pos:R:3:initial_magmoms:R:1:castep_labels:S:1 n_minim_iter=3 pbc="T T T"
P        2.48422561       5.61579864       0.81434071       0.00000000 NULL
P        0.64534594       2.21632960       3.00354771       0.00000000 NULL
P        0.91943983       4.58260849       6.82143613       0.00000000 NULL
P        2.21013171       1.18313945       4.63222912       0.00000000 NULL
P        2.23602408       0.80327567       1.15800707       0.00000000 NULL
P        0.89354746       4.20274471       2.65988135       0.00000000 NULL
P        0.67123831       2.59619337       6.47776977       0.00000000 NULL
P        2.45833323       5.99566242       4.97589548       0.00000000 NULL
8
Lattice="3.1282109543148278 0.0 0.0 0.0 6.893594716179894 0.0 0.0 0.0 7.328130059139754" Properties=species:S:1:pos:R:3:initial_magmoms:R:1:castep_labels:S:1 n_minim_iter=4 pbc="T T T"
P        2.48362862       5.67659960       0.78179800       0.00000000 NULL
P        0.64458233       2.22980224       2.88226703       0.00000000 NULL
P        0.91952315       4.66379247       6.54633206       0.00000000 NULL
P        2.20868781       1.21699511       4.44586303       0.00000000 NULL
P        2.23551566       0.82546141       1.11178924       0.00000000 NULL
P        0.89269529       4.27225877       2.55227579       0.00000000 NULL
P        0.67141019       2.62133595       6.21634082       0.00000000 NULL
P        2.45680077       6.06813330       4.77585426       0.00000000 NULL
8
Lattice="3.1426089453677264 0.0 0.0 0.0 6.7733691904948525 0.0 0.0 0.0 7.0857231846695035" Properties=species:S:1:pos:R:3:initial_magmoms:R:1:castep_labels:S:1 n_minim_iter=5 pbc="T T T"
P        2.49536375       5.56144282       0.75778355       0.00000000 NULL
P        0.64724519       2.17475823       2.78507804       0.00000000 NULL
P        0.92405928       4.59861096       6.32793963       0.00000000 NULL
P        2.21854967       1.21192637       4.30064514       0.00000000 NULL
P        2.24701166       0.82029575       1.07440419       0.00000000 NULL
P        0.89559728       4.20698035       2.46845740       0.00000000 NULL
P        0.67570719       2.56638884       6.01131900       0.00000000 NULL
P        2.46690175       5.95307344       4.61726578       0.00000000 NULL
8
Lattice="3.190862442089018 0.0 0.0 0.0 6.8042855912601174 0.0 0.0 0.0 7.028073787475367" Properties=species:S:1:pos:R:3:initial_magmoms:R:1:castep_labels:S:1 n_minim_iter=6 pbc="T T T"
P        2.53404632       5.57672341       0.75325717       0.00000000 NULL
P        0.65681612       2.17458061       2.76077972       0.00000000 NULL
P        0.93861510       4.62970498       6.27481662       0.00000000 NULL
P        2.25224734       1.22756218       4.26729406       0.00000000 NULL
P        2.28211410       0.83101739       1.06492851       0.00000000 NULL
P        0.90874834       4.23316018       2.44910838       0.00000000 NULL
P        0.68668288       2.57112541       5.96314527       0.00000000 NULL
P        2.50417957       5.97326820       4.57896541       0.00000000 NULL
8
Lattice="3.2199592545957074 0.0 0.0 0.0 6.750576046872436 0.0 0.0 0.0 6.973905834446219" Properties=species:S:1:pos:R:3:initial_magmoms:R:1:castep_labels:S:1 n_minim_iter=7 pbc="T T T"
P        2.55738487       5.52595276       0.74883899       0.00000000 NULL
P        0.66257439       2.15066473       2.73811392       0.00000000 NULL
P        0.94740524       4.59991131       6.22506684       0.00000000 NULL
P        2.27255401       1.22462329       4.23579191       0.00000000 NULL
P        2.30348572       0.82876445       1.05620271       0.00000000 NULL
P        0.91647354       4.20405248       2.43075021       0.00000000 NULL
P        0.69350609       2.54652357       5.91770312       0.00000000 NULL
P        2.52645317       5.92181159       4.54315563       0.00000000 NULL
8
Lattice="3.2761154772365266 0.0 0.0 0.0 6.689819156068555 0.0 0.0 0.0 6.90422892751934" Properties=species:S:1:pos:R:3:initial_magmoms:R:1:castep_labels:S:1 n_minim_iter=8 pbc="T T T"
P        2.60249187       5.46459385       0.74387088       0.00000000 NULL
P        0.67362361       2.11968427       2.70824358       0.00000000 NULL
P        0.96443413       4.57013488       6.16035805       0.00000000 NULL
P        2.31168135       1.22522530       4.19598534       0.00000000 NULL
P        2.34457680       0.82905816       1.04474120       0.00000000 NULL
P        0.93153868       4.17396774       2.40737326       0.00000000 NULL
P        0.70651906       2.51585141       5.85948772       0.00000000 NULL
P        2.56959642       5.86076099       4.49685567       0.00000000 NULL
8
Lattice="3.525111654018651 0.0 0.0 0.0 6.382322380258565 0.0 0.0 0.0 6.67035203025762" Properties=species:S:1:pos:R:3:initial_magmoms:R:1:castep_labels:S:1 n_minim_iter=9 pbc="T T T"
P        2.80355623       5.15960839       0.73170961       0.00000000 NULL
P        0.72155542       1.96844720       2.60346641       0.00000000 NULL
P        1.04100041       4.41387518       5.93864242       0.00000000 NULL
P        2.48411125       1.22271399       4.06688562       0.00000000 NULL
P        2.52764585       0.82766863       1.00505725       0.00000000 NULL
P        0.99746580       4.01882982       2.33011876       0.00000000 NULL
P        0.76509003       2.36349256       5.66529478       0.00000000 NULL
P        2.76002163       5.55465375       4.34023327       0.00000000 NULL
8
Lattice="3.4061847982824465 0.0 0.0 0.0 6.282289498659993 0.0 0.0 0.0 6.8207307551908425" Properties=species:S:1:pos:R:3:initial_magmoms:R:1:castep_labels:S:1 n_minim_iter=10 pbc="T T T"
P        2.71160908       5.05060236       0.75676876       0.00000000 NULL
P        0.69457572       1.90945761       2.65359661       0.00000000 NULL
P        1.00851668       4.37283189       6.06396199       0.00000000 NULL
P        2.39766811       1.23168714       4.16713414       0.00000000 NULL
P        2.44491687       0.83586335       1.02569376       0.00000000 NULL
P        0.96126793       3.97700810       2.38467161       0.00000000 NULL
P        0.74182447       2.30528140       5.79503699       0.00000000 NULL
P        2.66436033       5.44642615       4.43605914       0.00000000 NULL
8
Lattice="3.443157077933686 0.0 0.0 0.0 6.198835944307482 0.0 0.0 0.0 6.932217371183508" Properties=species:S:1:pos:R:3:initial_magmoms:R:1:castep_labels:S:1 n_minim_iter=11 pbc="T T T"
P        2.74212608       4.96523458       0.77663524       0.00000000 NULL
P        0.70103099       1.86581661       2.68947344       0.00000000 NULL
P        1.02054754       4.33301933       6.15558213       0.00000000 NULL
P        2.42260953       1.23360136       4.24274393       0.00000000 NULL
P        2.47337565       0.83862858       1.04046005       0.00000000 NULL
P        0.96978142       3.93804655       2.42564863       0.00000000 NULL
P        0.75179712       2.26078939       5.89175732       0.00000000 NULL
P        2.69135996       5.36020737       4.50656874       0.00000000 NULL
8
Lattice="3.4227873983849593 0.0 0.0 0.0 6.119804979722445 0.0 0.0 0.0 6.910255316736861" Properties=species:S:1:pos:R:3:initial_magmoms:R:1:castep_labels:S:1 n_minim_iter=12 pbc="T T T"
P        2.72633356       4.89242858       0.77809941       0.00000000 NULL
P        0.69645384       1.83252609       2.67702825       0.00000000 NULL
P        1.01493986       4.28727889       6.13215591       0.00000000 NULL
P        2.40784754       1.22737640       4.23322706       0.00000000 NULL
P        2.45974246       0.83486731       1.03649223       0.00000000 NULL
P        0.96304494       3.89476980       2.41863543       0.00000000 NULL
P        0.74834876       2.22503518       5.87376309       0.00000000 NULL
P        2.67443864       5.28493767       4.49161989       0.00000000 NULL
8
Lattice="3.4270029151387194 0.0 0.0 0.0 6.124833055500392 0.0 0.0 0.0 6.92813286032361" Properties=species:S:1:pos:R:3:initial_magmoms:R:1:castep_labels:S:1 n_minim_iter=13 pbc="T T T"
P        2.72998447       4.89029362       0.78264603       0.00000000 NULL
P        0.69701844       1.82787710       2.68142040       0.00000000 NULL
P        1.01648301       4.29695596       6.14548683       0.00000000 NULL
P        2.41051990       1.23453943       4.24671246       0.00000000 NULL
P        2.46331734       0.84029299       1.03873206       0.00000000 NULL
P        0.96368558       3.90270952       2.42533437       0.00000000 NULL
P        0.74981588       2.22212354       5.88940080       0.00000000 NULL
P        2.67718703       5.28454006       4.50279849       0.00000000 NULL
8
Lattice="3.4252186688216826 0.0 0.0 0.0 6.0998349277918935 0.0 0.0 0.0 6.93313696741576" Properties=species:S:1:pos:R:3:initial_magmoms:R:1:castep_labels:S:1 n_minim_iter=14 pbc="T T T"
P        2.72877007       4.86450314       0.78580298       0.00000000 NULL
P        0.69644860       1.81458567       2.68076551       0.00000000 NULL
P        1.01616073       4.28524925       6.14733399       0.00000000 NULL
P        2.40905794       1.23533179       4.25237146       0.00000000 NULL
P        2.46264228       0.84125869       1.03907662       0.00000000 NULL
P        0.96257639       3.89117615       2.42749187       0.00000000 NULL
P        0.75003294       2.20865878       5.89406035       0.00000000 NULL
P        2.67518573       5.25857624       4.50564510       0.00000000 NULL
8
Lattice="3.4223720544518703 0.0 0.0 0.0 5.973810921352207 0.0 0.0 0.0 6.977187291711023" Properties=species:S:1:pos:R:3:initial_magmoms:R:1:castep_labels:S:1 n_minim_iter=15 pbc="T T T"
P        2.72761633       4.72866839       0.80728455       0.00000000 NULL
P        0.69475573       1.74176293       2.68130910       0.00000000 NULL
P        1.01643030       4.23204799       6.16990275       0.00000000 NULL
P        2.40594175       1.24514253       4.29587819       0.00000000 NULL
P        2.46438968       0.85067021       1.04330495       0.00000000 NULL
P        0.95798238       3.83757568       2.44528870       0.00000000 NULL
P        0.75320365       2.13623525       5.93388235       0.00000000 NULL
P        2.66916841       5.12314071       4.53189859       0.00000000 NULL
8
Lattice="3.4192174420827204 0.0 0.0 0.0 5.483241160026311 0.0 0.0 0.0 6.858465489769188" Properties=species:S:1:pos:R:3:initial_magmoms:R:1:castep_labels:S:1 n_minim_iter=16 pbc="T T T"
P        2.72364416       4.24755789       0.84622659       0.00000000 NULL
P        0.69557328       1.50593731       2.58300616       0.00000000 NULL
P        1.01403544       3.97730385       6.01223890       0.00000000 NULL
P        2.40518200       1.23568327       4.27545933       0.00000000 NULL
P        2.47432155       0.85013581       1.02309266       0.00000000 NULL
P        0.94489590       3.59175639       2.40614008       0.00000000 NULL
P        0.76471282       1.89148477       5.83537283       0.00000000 NULL
P        2.65450462       4.63310535       4.45232541       0.00000000 NULL
8
Lattice="3.5166417580522578 0.0 0.0 0.0 5.736369610874945 0.0 0.0 0.0 7.1619433666958265" Properties=species:S:1:pos:R:3:initial_magmoms:R:1:castep_labels:S:1 n_minim_iter=17 pbc="T T T"
P        2.80006462       4.43515941       0.88856820       0.00000000 NULL
P        0.71657714       1.56697461       2.69240349       0.00000000 NULL
P        1.04174374       4.16939500       6.27337517       0.00000000 NULL
P        2.47489802       1.30121020       4.46953988       0.00000000 NULL
P        2.54530679       0.89689330       1.06837355       0.00000000 NULL
P        0.97133497       3.76507810       2.51259813       0.00000000 NULL
P        0.78698591       1.97129151       6.09356981       0.00000000 NULL
P        2.72965585       4.83947631       4.64934524       0.00000000 NULL
8
Lattice="3.446232362861277 0.0 0.0 0.0 5.592045802156726 0.0 0.0 0.0 7.045902932704931" Properties=species:S:1:pos:R:3:initial_magmoms:R:1:castep_labels:S:1 n_minim_iter=18 pbc="T T T"
P        2.74316419       4.32162273       0.87651768       0.00000000 NULL
P        0.70306817       1.52559983       2.64643379       0.00000000 NULL
P        1.02004801       4.06644597       6.16938525       0.00000000 NULL
P        2.42618435       1.27042307       4.39946915       0.00000000 NULL
P        2.49496470       0.87567391       1.05209367       0.00000000 NULL
P        0.95126766       3.67169681       2.47085780       0.00000000 NULL
P        0.77184852       1.92034899       5.99380927       0.00000000 NULL
P        2.67438384       4.71637189       4.57504513       0.00000000 NULL
8
Lattice="3.43880461965799 0.0 0.0 0.0 5.562969519485395 0.0 0.0 0.0 7.052659173856274" Properties=species:S:1:pos:R:3:initial_magmoms:R:1:castep_labels:S:1 n_minim_iter=19 pbc="T T T"
P        2.73633477       4.29611521       0.87988053       0.00000000 NULL
P        0.70246985       1.51463045       2.64644906       0.00000000 NULL
P        1.01693246       4.04833907       6.17277865       0.00000000 NULL
P        2.42187216       1.26685431       4.40621011       0.00000000 NULL
P        2.48999778       0.87357274       1.05379883       0.00000000 NULL
P        0.94880684       3.65505750       2.47253075       0.00000000 NULL
P        0.77059547       1.90791202       5.99886034       0.00000000 NULL
P        2.66820915       4.68939678       4.58012842       0.00000000 NULL
8
Lattice="3.4379263091209453 0.0 0.0 0.0 5.548232587709289 0.0 0.0 0.0 7.069078778900683" Properties=species:S:1:pos:R:3:initial_magmoms:R:1:castep_labels:S:1 n_minim_iter=20 pbc="T T T"
P        2.73459411       4.28127448       0.88470514       0.00000000 NULL
P        0.70333220       1.50715819       2.64983425       0.00000000 NULL
P        1.01563096       4.04107440       6.18437364       0.00000000 NULL
P        2.42229535       1.26695810       4.41924453       0.00000000 NULL
P        2.48979227       0.87409595       1.05703771       0.00000000 NULL
P        0.94813403       3.64821225       2.47750168       0.00000000 NULL
P        0.77082912       1.90002034       6.01204107       0.00000000 NULL
P        2.66709719       4.67413664       4.59157710       0.00000000 NULL
8
Lattice="3.430937500827018 0.0 0.0 0.0 5.482898676482875 0.0 0.0 0.0 7.11845699389763" Properties=species:S:1:pos:R:3:initial_magmoms:R:1:castep_labels:S:1 n_minim_iter=21 pbc="T T T"
P        2.72411874       4.21541120       0.90357670       0.00000000 NULL
P        0.70681876       1.47396186       2.65565179       0.00000000 NULL
P        1.00864999       4.00893682       6.21488029       0.00000000 NULL
P        2.42228751       1.26748748       4.46280520       0.00000000 NULL
P        2.48670692       0.87652143       1.06830711       0.00000000 NULL
P        0.94423059       3.61797077       2.49092139       0.00000000 NULL
P        0.77123817       1.86492791       6.05014988       0.00000000 NULL
P        2.65969934       4.60637725       4.62753561       0.00000000 NULL
8
Lattice="3.4241208107434664 0.0 0.0 0.0 5.334954700880972 0.0 0.0 0.0 7.199162828799083" Properties=species:S:1:pos:R:3:initial_magmoms:R:1:castep_labels:S:1 n_minim_iter=22 pbc="T T T"
P        2.69648063       4.04770189       0.96086059       0.00000000 NULL
P        0.72764018       1.38022454       2.63872082       0.00000000 NULL
P        0.98442023       3.95473016       6.23830223       0.00000000 NULL
P        2.43970058       1.28725281       4.56044201       0.00000000 NULL
P        2.48980082       0.89816686       1.09811583       0.00000000 NULL
P        0.93431999       3.56564421       2.50146559       0.00000000 NULL
P        0.77774041       1.76931049       6.10104700       0.00000000 NULL
P        2.64638040       4.43678784       4.69769724       0.00000000 NULL
