14
Lattice="5.23657 0.0 0.0 0.0 5.352449999999999 -3.7730275137137053e-16 0.0 -2.418564458345965 11.05545104954681" Properties=species:S:1:pos:R:3:initial_magmoms:R:1:castep_labels:S:1 n_minim_iter=1 pbc="T T T"
P        2.45399128       2.45977197       9.36238058       0.00000000 NULL
P        2.78257872      -0.21645303       9.36238058       0.00000000 NULL
P        3.84080154       1.37419760       1.55388566       0.00000000 NULL
P        1.39576846       4.05042260       1.55388566       0.00000000 NULL
P        2.60781762       2.78977623       0.43618066       0.00000000 NULL
P        2.62875238       0.11355123       0.43618066       0.00000000 NULL
P        0.85460718       2.23190353      10.60897776       0.00000000 NULL
P        4.38196282      -0.44432147      10.60897776       0.00000000 NULL
P        4.62726994       2.11124540       3.48017086       0.00000000 NULL
P        0.60930006      -0.56497960       3.48017086       0.00000000 NULL
P        4.38192931       4.87240849       2.07913456       0.00000000 NULL
P        0.85464069       2.19618349       2.07913456       0.00000000 NULL
P        0.55382069       1.86808514       5.12997251       0.00000000 NULL
P        4.68274931      -0.80813986       5.12997251       0.00000000 NULL
14
Lattice="5.254689704226704 0.0 0.0 0.0 5.368929337852493 -0.0019092981310855973 0.0 -2.4299544746664026 11.100643479749708" Properties=species:S:1:pos:R:3:initial_magmoms:R:1:castep_labels:S:1 n_minim_iter=2 pbc="T T T"
P        2.46272451       2.46404148       9.39885910       0.00000000 NULL
P        2.79196520      -0.22042319       9.39981375       0.00000000 NULL
P        3.85406187       1.37813400       1.55975991       0.00000000 NULL
P        1.40062784       4.06259867       1.55880527       0.00000000 NULL
P        2.61692449       2.79811678       0.43672380       0.00000000 NULL
P        2.63776522       0.11365211       0.43767844       0.00000000 NULL
P        0.85714572       2.23503829      10.65062129       0.00000000 NULL
P        4.39754399      -0.44942638      10.65157594       0.00000000 NULL
P        4.64298510       2.11671556       3.49356714       0.00000000 NULL
P        0.61170461      -0.56774911       3.49452179       0.00000000 NULL
P        4.39693683       4.88628322       2.08572611       0.00000000 NULL
P        0.85775288       2.20181855       2.08668076       0.00000000 NULL
P        0.55580212       1.87193026       5.15005019       0.00000000 NULL
P        4.69888759      -0.81253441       5.15100484       0.00000000 NULL
14
Lattice="5.583584365754187 0.0 0.0 0.0 5.66635435093894 -0.03658692427040717 0.0 -2.635975710543751 11.921914436629983" Properties=species:S:1:pos:R:3:initial_magmoms:R:1:castep_labels:S:1 n_minim_iter=3 pbc="T T T"
P        2.62139582       2.54077882      10.06177619       0.00000000 NULL
P        2.96218854      -0.29239836      10.08006965       0.00000000 NULL
P        4.09481688       1.44929992       1.66656260       0.00000000 NULL
P        1.48876748       4.28247709       1.64826914       0.00000000 NULL
P        2.78236784       2.94854871       0.44626079       0.00000000 NULL
P        2.80121653       0.11537154       0.46455425       0.00000000 NULL
P        0.90293415       2.29120678      11.40732461       0.00000000 NULL
P        4.68065022      -0.54197039      11.42561807       0.00000000 NULL
P        4.92811930       2.21552394       3.73724692       0.00000000 NULL
P        0.65546506      -0.61765324       3.75554038       0.00000000 NULL
P        4.66933258       5.13630819       2.20564991       0.00000000 NULL
P        0.91425179       2.30313101       2.22394337       0.00000000 NULL
P        0.59169855       1.94101919       5.51499276       0.00000000 NULL
P        4.99188581      -0.89215798       5.53328622       0.00000000 NULL
14
Lattice="5.658744655240228 0.0 0.0 0.0 5.724113014295169 -0.024467718792970553 0.0 -2.637042468278943 12.037204685229218" Properties=species:S:1:pos:R:3:initial_magmoms:R:1:castep_labels:S:1 n_minim_iter=4 pbc="T T T"
P        2.65830938       2.58873953      10.17113120       0.00000000 NULL
P        3.00043528      -0.27331697      10.18336506       0.00000000 NULL
P        4.15103006       1.46993745       1.68730247       0.00000000 NULL
P        1.50771459       4.33199396       1.67506861       0.00000000 NULL
P        2.82178668       2.97801488       0.45315172       0.00000000 NULL
P        2.83695798       0.11595837       0.46538558       0.00000000 NULL
P        0.91248119       2.33979239      11.52715728       0.00000000 NULL
P        4.74626346      -0.52226412      11.53939114       0.00000000 NULL
P        4.99423477       2.24910378       3.78232220       0.00000000 NULL
P        0.66450988      -0.61295273       3.79455606       0.00000000 NULL
P        4.73263282       5.19009287       2.24056239       0.00000000 NULL
P        0.92611184       2.32803637       2.25279624       0.00000000 NULL
P        0.59861509       1.97201519       5.57494674       0.00000000 NULL
P        5.06012956      -0.89004132       5.58718060       0.00000000 NULL
14
Lattice="5.694227050474145 0.0 0.0 0.0 5.751439821728072 -0.002650291811073642 0.0 -2.604326637059944 12.02568370697161" Properties=species:S:1:pos:R:3:initial_magmoms:R:1:castep_labels:S:1 n_minim_iter=5 pbc="T T T"
P        2.67641531       2.63966890      10.18276646       0.00000000 NULL
P        3.01781174      -0.23605101      10.18409160       0.00000000 NULL
P        4.17857681       1.48549789       1.69319743       0.00000000 NULL
P        1.51565024       4.36121780       1.69187228       0.00000000 NULL
P        2.84197344       2.99202539       0.45932472       0.00000000 NULL
P        2.85225361       0.11630547       0.46064987       0.00000000 NULL
P        0.91625749       2.39504409      11.53344483       0.00000000 NULL
P        4.77796956      -0.48067582      11.53476998       0.00000000 NULL
P        5.02637592       2.27739656       3.79273625       0.00000000 NULL
P        0.66785113      -0.59832335       3.79406140       0.00000000 NULL
P        4.76346177       5.21985897       2.26164733       0.00000000 NULL
P        0.93076528       2.34413906       2.26297247       0.00000000 NULL
P        0.60068754       2.00169833       5.58072503       0.00000000 NULL
P        5.09353951      -0.87402158       5.58205017       0.00000000 NULL
14
Lattice="5.717138010223544 0.0 0.0 0.0 5.772901882717656 0.02735814688540633 0.0 -2.5520422724848446 11.954629800485302" Properties=species:S:1:pos:R:3:initial_magmoms:R:1:castep_labels:S:1 n_minim_iter=6 pbc="T T T"
P        2.68887418       2.70230556      10.15221964       0.00000000 NULL
P        3.02826383      -0.18414538      10.13854056       0.00000000 NULL
P        4.19735270       1.50211628       1.69342987       0.00000000 NULL
P        1.51978531       4.38856722       1.70710894       0.00000000 NULL
P        2.85669894       3.00310125       0.46613911       0.00000000 NULL
P        2.86043907       0.11665031       0.45246003       0.00000000 NULL
P        0.91790626       2.46429340      11.48930250       0.00000000 NULL
P        4.79923175      -0.42215754      11.47562343       0.00000000 NULL
P        5.04803446       2.30969077       3.78915265       0.00000000 NULL
P        0.66910355      -0.57676017       3.77547358       0.00000000 NULL
P        4.78436248       5.24674607       2.28001657       0.00000000 NULL
P        0.93277553       2.36029512       2.26633749       0.00000000 NULL
P        0.60085960       2.03699498       5.56305683       0.00000000 NULL
P        5.11627841      -0.84945596       5.54937776       0.00000000 NULL
14
Lattice="5.882825281340013 0.0 0.0 0.0 5.977157241040807 0.2789311199462173 0.0 -2.1247149851686333 11.36577923498449" Properties=species:S:1:pos:R:3:initial_magmoms:R:1:castep_labels:S:1 n_minim_iter=7 pbc="T T T"
P        2.78190726       3.24030724       9.90132817       0.00000000 NULL
P        3.10091802       0.25172862       9.76186261       0.00000000 NULL
P        4.33520276       1.64486617       1.69738163       0.00000000 NULL
P        1.54762252       4.63344479       1.83684719       0.00000000 NULL
P        2.96851808       3.10677894       0.52533832       0.00000000 NULL
P        2.91430721       0.11820032       0.38587276       0.00000000 NULL
P        0.92697187       3.05499176      11.12668471       0.00000000 NULL
P        4.95585341       0.06641314      10.98721915       0.00000000 NULL
P        5.20595927       2.59358693       3.75965769       0.00000000 NULL
P        0.67686601      -0.39499169       3.62019213       0.00000000 NULL
P        4.93831346       5.49479515       2.43155139       0.00000000 NULL
P        0.94451182       2.50621653       2.29208583       0.00000000 NULL
P        0.60022217       2.34028622       5.42028805       0.00000000 NULL
P        5.28260311      -0.64829240       5.28082249       0.00000000 NULL
14
Lattice="5.963527797429807 0.0 0.0 0.0 6.258150964471405 0.5171949318356616 0.0 -1.7595527740849894 11.495653924542736" Properties=species:S:1:pos:R:3:initial_magmoms:R:1:castep_labels:S:1 n_minim_iter=8 pbc="T T T"
P        2.82947120       3.78276371      10.23520703       0.00000000 NULL
P        3.13405660       0.65368823       9.97660956       0.00000000 NULL
P        4.39814189       1.77487659       1.80243010       0.00000000 NULL
P        1.56538591       4.90395207       2.06102756       0.00000000 NULL
P        3.03263812       3.26898025       0.62870094       0.00000000 NULL
P        2.93088968       0.13990476       0.37010348       0.00000000 NULL
P        0.92783927       3.65287660      11.44151555       0.00000000 NULL
P        5.03568852       0.52380112      11.18291808       0.00000000 NULL
P        5.27054707       2.88960637       3.92634684       0.00000000 NULL
P        0.69298073      -0.23946911       3.66774937       0.00000000 NULL
P        5.01589161       5.82930922       2.69602084       0.00000000 NULL
P        0.94763619       2.70023374       2.43742337       0.00000000 NULL
P        0.61270732       2.66024777       5.62178275       0.00000000 NULL
P        5.35082047      -0.46882772       5.36318528       0.00000000 NULL
14
Lattice="5.86259295798867 0.0 0.0 0.0 6.221213451419357 0.5414822406967921 0.0 -1.6926968650177723 11.20547971420827" Properties=species:S:1:pos:R:3:initial_magmoms:R:1:castep_labels:S:1 n_minim_iter=9 pbc="T T T"
P        2.78142433       3.80821671      10.01352160       0.00000000 NULL
P        3.08116863       0.69760998       9.74278047       0.00000000 NULL
P        4.32397842       1.77072190       1.76887687       0.00000000 NULL
P        1.53861453       4.88132862       2.03961799       0.00000000 NULL
P        2.98413218       3.25100547       0.62814942       0.00000000 NULL
P        2.87846077       0.14039875       0.35740830       0.00000000 NULL
P        0.91339468       3.68660074      11.18413205       0.00000000 NULL
P        4.94919828       0.57599401      10.91339093       0.00000000 NULL
P        5.18297267       2.89132754       3.84717137       0.00000000 NULL
P        0.67962029      -0.21927919       3.57643025       0.00000000 NULL
P        4.93311367       5.80589906       2.66581682       0.00000000 NULL
P        0.92947929       2.69529233       2.39507570       0.00000000 NULL
P        0.60192339       2.67084558       5.50010840       0.00000000 NULL
P        5.26066957      -0.43976114       5.22936728       0.00000000 NULL
14
Lattice="5.85859644972943 0.0 0.0 0.0 6.236490443790297 0.5741425924070072 0.0 -1.6321401986660105 11.168445786944138" Properties=species:S:1:pos:R:3:initial_magmoms:R:1:castep_labels:S:1 n_minim_iter=10 pbc="T T T"
P        2.78092885       3.87145302      10.01264514       0.00000000 NULL
P        3.07766760       0.75320780       9.72557385       0.00000000 NULL
P        4.32106937       1.78232689       1.77548328       0.00000000 NULL
P        1.53752708       4.90057211       2.06255458       0.00000000 NULL
P        2.98479588       3.26181277       0.64049034       0.00000000 NULL
P        2.87380057       0.14356755       0.35341905       0.00000000 NULL
P        0.91132722       3.75886855      11.17543298       0.00000000 NULL
P        4.94726923       0.64062332      10.88836168       0.00000000 NULL
P        5.17834837       2.92070568       3.85256748       0.00000000 NULL
P        0.68024808      -0.19753955       3.56549619       0.00000000 NULL
P        4.93075159       5.83188654       2.69138622       0.00000000 NULL
P        0.92784486       2.71364131       2.40431493       0.00000000 NULL
P        0.60242337       2.70733686       5.50203163       0.00000000 NULL
P        5.25617308      -0.41090836       5.21496033       0.00000000 NULL
14
Lattice="5.85953750763683 0.0 0.0 0.0 6.247949990705614 0.5978638266046078 0.0 -1.5883222665735512 11.151042530548784" Properties=species:S:1:pos:R:3:initial_magmoms:R:1:castep_labels:S:1 n_minim_iter=11 pbc="T T T"
P        2.78248637       3.91746737      10.02005791       0.00000000 NULL
P        3.07705114       0.79349237       9.72112600       0.00000000 NULL
P        4.32174439       1.79085887       1.78172321       0.00000000 NULL
P        1.53779312       4.91483386       2.08065512       0.00000000 NULL
P        2.98717797       3.26994421       0.64971255       0.00000000 NULL
P        2.87235953       0.14596922       0.35078064       0.00000000 NULL
P        0.91030501       3.81153994      11.17816471       0.00000000 NULL
P        4.94923250       0.68756495      10.87923279       0.00000000 NULL
P        5.17827056       2.94218263       3.85949837       0.00000000 NULL
P        0.68126695      -0.18179236       3.56056646       0.00000000 NULL
P        4.93222481       5.85103334       2.71173222       0.00000000 NULL
P        0.92731269       2.72705835       2.41280031       0.00000000 NULL
P        0.60325393       2.73397817       5.50788266       0.00000000 NULL
P        5.25628357      -0.38999682       5.20895074       0.00000000 NULL
14
Lattice="5.86027770961798 0.0 0.0 0.0 6.254822840781065 0.6134424450440845 0.0 -1.559250304638893 11.13947800382997" Properties=species:S:1:pos:R:3:initial_magmoms:R:1:castep_labels:S:1 n_minim_iter=12 pbc="T T T"
P        2.78359574       3.94735489      10.02484835       0.00000000 NULL
P        3.07668197       0.81994347       9.71812713       0.00000000 NULL
P        4.32226288       1.79628655       1.78583067       0.00000000 NULL
P        1.53801483       4.92369797       2.09255189       0.00000000 NULL
P        2.98879532       3.27497827       0.65570674       0.00000000 NULL
P        2.87148239       0.14756685       0.34898552       0.00000000 NULL
P        0.90963298       3.84588164      11.17981665       0.00000000 NULL
P        4.95064473       0.71847022      10.87309543       0.00000000 NULL
P        5.17831826       2.95601846       3.86400723       0.00000000 NULL
P        0.68195945      -0.17139296       3.55728600       0.00000000 NULL
P        4.93330424       5.86299965       2.72507048       0.00000000 NULL
P        0.92697347       2.73558823       2.41834925       0.00000000 NULL
P        0.60382557       2.75125414       5.51166550       0.00000000 NULL
P        5.25645214      -0.37615728       5.20494428       0.00000000 NULL
14
Lattice="5.864728212056627 0.0 0.0 0.0 6.287396364563351 0.6898649417407314 0.0 -1.4161188406530527 11.08407451931274" Properties=species:S:1:pos:R:3:initial_magmoms:R:1:castep_labels:S:1 n_minim_iter=13 pbc="T T T"
P        2.78953804       4.09340864      10.04955921       0.00000000 NULL
P        3.07519017       0.94971045       9.70462674       0.00000000 NULL
P        4.32536884       1.82260570       1.80622372       0.00000000 NULL
P        1.53935937       4.96630389       2.15115619       0.00000000 NULL
P        2.99713428       3.29909639       0.68498408       0.00000000 NULL
P        2.86759393       0.15539821       0.34005161       0.00000000 NULL
P        0.90637859       4.01393937      11.18917810       0.00000000 NULL
P        4.95834962       0.87024118      10.84424563       0.00000000 NULL
P        5.17923383       3.02343348       3.88659200       0.00000000 NULL
P        0.68549438      -0.12026471       3.54165953       0.00000000 NULL
P        4.93933259       5.92059640       2.79074995       0.00000000 NULL
P        0.92539562       2.77689822       2.44581748       0.00000000 NULL
P        0.60676615       2.83564394       5.53084546       0.00000000 NULL
P        5.25796206      -0.30805424       5.18591299       0.00000000 NULL
14
Lattice="5.88616831739015 0.0 0.0 0.0 6.345516020281426 0.8601369749329699 0.0 -1.0906850683781941 10.9618891847934" Properties=species:S:1:pos:R:3:initial_magmoms:R:1:castep_labels:S:1 n_minim_iter=14 pbc="T T T"
P        2.81039315       4.41081869      10.10893702       0.00000000 NULL
P        3.07577517       1.23806068       9.67886853       0.00000000 NULL
P        4.34048000       1.87600349       1.85398677       0.00000000 NULL
P        1.54568831       5.04876150       2.28405525       0.00000000 NULL
P        3.02268289       3.34673930       0.74540731       0.00000000 NULL
P        2.86348543       0.17398129       0.31533883       0.00000000 NULL
P        0.89871505       4.38395067      11.20986902       0.00000000 NULL
P        4.98745326       1.21119266      10.77980053       0.00000000 NULL
P        5.19036123       3.16907006       3.93710292       0.00000000 NULL
P        0.69580709      -0.00368795       3.50703444       0.00000000 NULL
P        4.96377468       6.03458545       2.93789029       0.00000000 NULL
P        0.92239363       2.86182744       2.50782180       0.00000000 NULL
P        0.61558790       3.01851565       5.57461863       0.00000000 NULL
P        5.27058042      -0.15424236       5.14455014       0.00000000 NULL
14
Lattice="5.906273009144777 0.0 0.0 0.0 6.339577846185011 0.9038076021974581 0.0 -0.9978004381915323 10.846134517878003" Properties=species:S:1:pos:R:3:initial_magmoms:R:1:castep_labels:S:1 n_minim_iter=15 pbc="T T T"
P        2.83167581       4.47519042      10.06937492       0.00000000 NULL
P        3.07459720       1.30540149       9.61747112       0.00000000 NULL
P        4.35497471       1.87390957       1.86495913       0.00000000 NULL
P        1.55129830       5.04369849       2.31686293       0.00000000 NULL
P        3.04432511       3.35669574       0.73475002       0.00000000 NULL
P        2.86194790       0.18690681       0.28284622       0.00000000 NULL
P        0.88950526       4.47859456      11.12656697       0.00000000 NULL
P        5.01676775       1.30880564      10.67466317       0.00000000 NULL
P        5.20106971       3.20772650       3.92038243       0.00000000 NULL
P        0.70520330       0.03793758       3.46847863       0.00000000 NULL
P        4.98992457       6.03918814       2.96405661       0.00000000 NULL
P        0.91634844       2.86939921       2.51215281       0.00000000 NULL
P        0.62381903       3.05513027       5.54861027       0.00000000 NULL
P        5.28245398      -0.11465866       5.09670647       0.00000000 NULL
14
Lattice="5.94802245735108 0.0 0.0 0.0 6.418024690860879 0.9624896365613533 0.0 -0.9120401586942107 10.98445582075421" Properties=species:S:1:pos:R:3:initial_magmoms:R:1:castep_labels:S:1 n_minim_iter=16 pbc="T T T"
P        2.85867615       4.60349235      10.24610287       0.00000000 NULL
P        3.08934631       1.39448001       9.76485805       0.00000000 NULL
P        4.38533277       1.90302313       1.91227282       0.00000000 NULL
P        1.56268969       5.11203547       2.39351764       0.00000000 NULL
P        3.07281607       3.41265027       0.75442989       0.00000000 NULL
P        2.87520638       0.20363792       0.27318507       0.00000000 NULL
P        0.88933395       4.63543027      11.30337630       0.00000000 NULL
P        5.05868851       1.42641793      10.82213148       0.00000000 NULL
P        5.23221224       3.28735132       3.99463468       0.00000000 NULL
P        0.71581022       0.07833897       3.51338986       0.00000000 NULL
P        5.03087339       6.12609447       3.05172303       0.00000000 NULL
P        0.91714907       2.91708213       2.57047821       0.00000000 NULL
P        0.63213453       3.13588598       5.64712113       0.00000000 NULL
P        5.31588793      -0.07312636       5.16587632       0.00000000 NULL
14
Lattice="5.894132809295919 0.0 0.0 0.0 6.390737880068279 0.9585082249739838 0.0 -0.9079338877617729 10.83719893102423" Properties=species:S:1:pos:R:3:initial_magmoms:R:1:castep_labels:S:1 n_minim_iter=17 pbc="T T T"
P        2.83329516       4.58284245      10.11951042       0.00000000 NULL
P        3.06083765       1.38747351       9.64025631       0.00000000 NULL
P        4.34601322       1.89267454       1.88968305       0.00000000 NULL
P        1.54811959       5.08804348       2.36893716       0.00000000 NULL
P        3.04664671       3.39988107       0.74539583       0.00000000 NULL
P        2.84748610       0.20451213       0.26614172       0.00000000 NULL
P        0.88159635       4.61749658      11.15926522       0.00000000 NULL
P        5.01253646       1.42212764      10.68001111       0.00000000 NULL
P        5.18559354       3.27495536       3.94596862       0.00000000 NULL
P        0.70853927       0.07958642       3.46671451       0.00000000 NULL
P        4.98737888       6.09958263       3.02082468       0.00000000 NULL
P        0.90675393       2.90421369       2.54157057       0.00000000 NULL
P        0.62609172       3.12193565       5.57562578       0.00000000 NULL
P        5.26804109      -0.07343329       5.09637167       0.00000000 NULL
14
Lattice="5.8942400281547425 0.0 0.0 0.0 6.398075479092122 0.9620396643676341 0.0 -0.9039552986778422 10.841102626405167" Properties=species:S:1:pos:R:3:initial_magmoms:R:1:castep_labels:S:1 n_minim_iter=18 pbc="T T T"
P        2.83464783       4.59050577      10.12749838       0.00000000 NULL
P        3.05959220       1.39146803       9.64647854       0.00000000 NULL
P        4.34619626       1.89367466       1.89245946       0.00000000 NULL
P        1.54804377       5.09271240       2.37347929       0.00000000 NULL
P        3.04808868       3.40617047       0.74460658       0.00000000 NULL
P        2.84615135       0.20713273       0.26358675       0.00000000 NULL
P        0.88062091       4.62913230      11.16538688       0.00000000 NULL
P        5.01361912       1.43009456      10.68436705       0.00000000 NULL
P        5.18474398       3.28208545       3.94907439       0.00000000 NULL
P        0.70949605       0.08304771       3.46805456       0.00000000 NULL
P        4.98866902       6.10634500       3.02571319       0.00000000 NULL
P        0.90557101       2.90730726       2.54469335       0.00000000 NULL
P        0.62666862       3.12727171       5.57945944       0.00000000 NULL
P        5.26757141      -0.07176603       5.09843961       0.00000000 NULL
14
Lattice="5.889908842971576 0.0 0.0 0.0 6.406862326540445 0.9663441151891113 0.0 -0.8990349185878629 10.835645685073427" Properties=species:S:1:pos:R:3:initial_magmoms:R:1:castep_labels:S:1 n_minim_iter=19 pbc="T T T"
P        2.83432174       4.59944432      10.12877978       0.00000000 NULL
P        3.05558710       1.39601316       9.64560772       0.00000000 NULL
P        4.34319995       1.89441065       1.89438478       0.00000000 NULL
P        1.54670889       5.09784182       2.37755684       0.00000000 NULL
P        3.04785697       3.41420801       0.74296431       0.00000000 NULL
P        2.84205188       0.21077685       0.25979225       0.00000000 NULL
P        0.87872210       4.64353790      11.16309695       0.00000000 NULL
P        5.01118674       1.44010673      10.67992489       0.00000000 NULL
P        5.17972286       3.29102689       3.94968031       0.00000000 NULL
P        0.71018598       0.08759573       3.46650826       0.00000000 NULL
P        4.98674739       6.11428082       3.02986031       0.00000000 NULL
P        0.90316146       2.91084966       2.54668825       0.00000000 NULL
P        0.62691982       3.13360387       5.57930021       0.00000000 NULL
P        5.26298903      -0.06982730       5.09612815       0.00000000 NULL
14
Lattice="5.8731784406611 0.0 0.0 0.0 6.44204759660564 0.9802313840006958 0.0 -0.8862497123885767 10.819373299580358" Properties=species:S:1:pos:R:3:initial_magmoms:R:1:castep_labels:S:1 n_minim_iter=20 pbc="T T T"
P        2.83212583       4.63088374      10.13390873       0.00000000 NULL
P        3.04105261       1.40985994       9.64379304       0.00000000 NULL
P        4.33168290       1.89776284       1.90051525       0.00000000 NULL
P        1.54149554       5.11878664       2.39063095       0.00000000 NULL
P        3.04614927       3.44454242       0.73774454       0.00000000 NULL
P        2.82702917       0.22351863       0.24762885       0.00000000 NULL
P        0.87217925       4.69325423      11.15721444       0.00000000 NULL
P        5.00099919       1.47223043      10.66709875       0.00000000 NULL
P        5.16084509       3.32309488       3.95228981       0.00000000 NULL
P        0.71233335       0.10207108       3.46217412       0.00000000 NULL
P        4.97839210       6.14581541       3.04352486       0.00000000 NULL
P        0.89478634       2.92479161       2.55340916       0.00000000 NULL
P        0.62747660       3.15627587       5.57928645       0.00000000 NULL
P        5.24570184      -0.06474793       5.08917075       0.00000000 NULL
14
Lattice="5.808068470779688 0.0 0.0 0.0 6.4542600774471435 1.003200246165974 0.0 -0.8443260215142044 10.781027804497375" Properties=species:S:1:pos:R:3:initial_magmoms:R:1:castep_labels:S:1 n_minim_iter=21 pbc="T T T"
P        2.81262227       4.65804480      10.13299535       0.00000000 NULL
P        2.99544620       1.43091476       9.63139522       0.00000000 NULL
P        4.28605368       1.88708125       1.90800172       0.00000000 NULL
P        1.52201479       5.11421128       2.40960184       0.00000000 NULL
P        3.02763242       3.47505667       0.72658060       0.00000000 NULL
P        2.78043605       0.24792664       0.22498047       0.00000000 NULL
P        0.85521258       4.75919755      11.13795135       0.00000000 NULL
P        4.95285589       1.53206751      10.63635122       0.00000000 NULL
P        5.09435125       3.36057935       3.95461279       0.00000000 NULL
P        0.71371722       0.13344931       3.45301266       0.00000000 NULL
P        4.93496944       6.15524803       3.06464726       0.00000000 NULL
P        0.87309903       2.92811799       2.56304714       0.00000000 NULL
P        0.62504908       3.17693732       5.57308655       0.00000000 NULL
P        5.18301939      -0.05019272       5.07148642       0.00000000 NULL
14
Lattice="5.8233968693613365 0.0 0.0 0.0 6.494577422377095 1.0025958518534146 0.0 -0.8637922377777035 10.887683993777772" Properties=species:S:1:pos:R:3:initial_magmoms:R:1:castep_labels:S:1 n_minim_iter=22 pbc="T T T"
P        2.82387722       4.67003062      10.22607583       0.00000000 NULL
P        2.99951965       1.42274191       9.72477790       0.00000000 NULL
P        4.29833341       1.89183708       1.92489528       0.00000000 NULL
P        1.52506346       5.13912579       2.42619321       0.00000000 NULL
P        3.03937021       3.50257003       0.72313895       0.00000000 NULL
P        2.78402666       0.25528132       0.22184103       0.00000000 NULL
P        0.85477984       4.77963591      11.23907050       0.00000000 NULL
P        4.96861703       1.53234720      10.73777258       0.00000000 NULL
P        5.10359567       3.38217508       3.98912272       0.00000000 NULL
P        0.71980120       0.13488637       3.48782480       0.00000000 NULL
P        4.95061397       6.18668948       3.08531522       0.00000000 NULL
P        0.87278290       2.93940077       2.58401730       0.00000000 NULL
P        0.62850303       3.18890085       5.62244491       0.00000000 NULL
P        5.19489384      -0.05838786       5.12114698       0.00000000 NULL
14
Lattice="5.792130893676156 0.0 0.0 0.0 6.473763002757127 0.9971324419994891 0.0 -0.8656716471490641 10.833133008942117" Properties=species:S:1:pos:R:3:initial_magmoms:R:1:castep_labels:S:1 n_minim_iter=23 pbc="T T T"
P        2.80966174       4.64965947      10.17592288       0.00000000 NULL
P        2.98246916       1.41277797       9.67735666       0.00000000 NULL
P        4.27589022       1.88304040       1.91493323       0.00000000 NULL
P        1.51624067       5.11992190       2.41349946       0.00000000 NULL
P        3.02464062       3.49303929       0.71697041       0.00000000 NULL
P        2.76749028       0.25615779       0.21840419       0.00000000 NULL
P        0.85003713       4.76148012      11.18280725       0.00000000 NULL
P        4.94209376       1.52459862      10.68424103       0.00000000 NULL
P        5.07569468       3.37151116       3.96944484       0.00000000 NULL
P        0.71643621       0.13462965       3.47087862       0.00000000 NULL
P        4.92557979       6.16489604       3.06999396       0.00000000 NULL
P        0.86655110       2.92801454       2.57142774       0.00000000 NULL
P        0.62521659       3.17602512       5.59351682       0.00000000 NULL
P        5.16691431      -0.06085638       5.09495060       0.00000000 NULL
14
Lattice="5.783743671238025 0.0 0.0 0.0 6.4753889282281785 0.9964033464276869 0.0 -0.8679122819911851 10.83895023682799" Properties=species:S:1:pos:R:3:initial_magmoms:R:1:castep_labels:S:1 n_minim_iter=24 pbc="T T T"
P        2.80688789       4.64737449      10.18115156       0.00000000 NULL
P        2.97685578       1.40968002       9.68294989       0.00000000 NULL
P        4.27023133       1.88132646       1.91569839       0.00000000 NULL
P        1.51351234       5.11902092       2.41390006       0.00000000 NULL
P        3.02175141       3.49598419       0.71472454       0.00000000 NULL
P        2.76199226       0.25828972       0.21652287       0.00000000 NULL
P        0.84808341       4.76234222      11.18799854       0.00000000 NULL
P        4.93566026       1.52464776      10.68979687       0.00000000 NULL
P        5.06711254       3.37354064       3.97147955       0.00000000 NULL
P        0.71663113       0.13584617       3.47327787       0.00000000 NULL
P        4.91964603       6.16457786       3.07070604       0.00000000 NULL
P        0.86409764       2.92688340       2.57250436       0.00000000 NULL
P        0.62477401       3.17543718       5.59562611       0.00000000 NULL
P        5.15896966      -0.06225729       5.09742444       0.00000000 NULL
14
Lattice="5.734501605460139 0.0 0.0 0.0 6.484131320082537 0.9930103365360115 0.0 -0.8788708697384668 10.873150907321277" Properties=species:S:1:pos:R:3:initial_magmoms:R:1:castep_labels:S:1 n_minim_iter=25 pbc="T T T"
P        2.79039699       4.63550496      10.21243295       0.00000000 NULL
P        2.94410461       1.39343930       9.71592778       0.00000000 NULL
P        4.23705472       1.87170606       1.92026830       0.00000000 NULL
P        1.49744689       5.11377172       2.41677347       0.00000000 NULL
P        3.00445047       3.51248785       0.70231902       0.00000000 NULL
P        2.73005114       0.27042219       0.20581385       0.00000000 NULL
P        0.83668792       4.76855774      11.21943406       0.00000000 NULL
P        4.89781368       1.52649208      10.72292889       0.00000000 NULL
P        5.01690705       3.38544949       3.98404301       0.00000000 NULL
P        0.71759455       0.14338383       3.48753784       0.00000000 NULL
P        4.88463755       6.16238688       3.07561450       0.00000000 NULL
P        0.84986405       2.92032122       2.57910933       0.00000000 NULL
P        0.62209223       3.17271449       5.60852669       0.00000000 NULL
P        5.11240938      -0.06935117       5.11202153       0.00000000 NULL
14
Lattice="5.6538740141112855 0.0 0.0 0.0 6.498895069691192 0.9949769337564435 0.0 -0.8814800413833661 10.948958278158827" Properties=species:S:1:pos:R:3:initial_magmoms:R:1:castep_labels:S:1 n_minim_iter=26 pbc="T T T"
P        2.76344336       4.63094515      10.28605068       0.00000000 NULL
P        2.89043066       1.38149761       9.78856222       0.00000000 NULL
P        4.18387394       1.85973516       1.93131398       0.00000000 NULL
P        1.47000008       5.10918269       2.42880245       0.00000000 NULL
P        2.97489477       3.53860538       0.68711860       0.00000000 NULL
P        2.67897925       0.28915784       0.18963014       0.00000000 NULL
P        0.81738767       4.79309337      11.29776403       0.00000000 NULL
P        4.83648635       1.54364583      10.80027557       0.00000000 NULL
P        4.93456637       3.40982940       4.01675971       0.00000000 NULL
P        0.71930764       0.16038187       3.51927124       0.00000000 NULL
P        4.82751507       6.16088828       3.09373792       0.00000000 NULL
P        0.82635894       2.91144074       2.59624946       0.00000000 NULL
P        0.61768962       3.17654985       5.64291037       0.00000000 NULL
P        5.03618439      -0.07289768       5.14542191       0.00000000 NULL
