8
Lattice="2.98709 0.0 0.0 0.0 7.735879999999999 0.0 0.0 0.0 7.735879999999999" Properties=species:S:1:pos:R:3:initial_magmoms:R:1:castep_labels:S:1 n_minim_iter=1 pbc="T T T"
P        0.68348234       2.23942354       7.70602724       0.00000000 NULL
P        2.17702734       5.49645646       0.02985276       0.00000000 NULL
P        2.92379984       7.70602724       5.49645646       0.00000000 NULL
P        1.43025484       0.02985276       2.23942354       0.00000000 NULL
P        0.05122381       3.67217582       2.53579903       0.00000000 NULL
P        1.54476881       4.06370418       5.20008097       0.00000000 NULL
P        2.29154131       2.53579903       4.06370418       0.00000000 NULL
P        0.79799631       5.20008097       3.67217582       0.00000000 NULL
8
Lattice="2.9850224010203634 0.0 0.0 0.0 7.740223941072826 0.0 0.0 0.0 7.740223941072826" Properties=species:S:1:pos:R:3:initial_magmoms:R:1:castep_labels:S:1 n_minim_iter=2 pbc="T T T"
P        0.68299627       2.24068059       7.71039419       0.00000000 NULL
P        2.17550747       5.49954335       0.02982975       0.00000000 NULL
P        2.92176307       7.71039419       5.49954335       0.00000000 NULL
P        1.42925187       0.02982975       2.24068059       0.00000000 NULL
P        0.05120134       3.67417510       2.53682801       0.00000000 NULL
P        1.54371254       4.06604884       5.20339594       0.00000000 NULL
P        2.28996814       2.53682801       4.06604884       0.00000000 NULL
P        0.79745694       5.20339594       3.67417510       0.00000000 NULL
8
Lattice="2.780195483061011 0.0 0.0 0.0 8.18529888871173 0.0 0.0 0.0 8.18529888871173" Properties=species:S:1:pos:R:3:initial_magmoms:R:1:castep_labels:S:1 n_minim_iter=3 pbc="T T T"
P        0.63491575       2.36954070       8.15793549       0.00000000 NULL
P        2.02501349       5.81575819       0.02736340       0.00000000 NULL
P        2.72006236       8.15793549       5.81575819       0.00000000 NULL
P        1.32996462       0.02736340       2.36954070       0.00000000 NULL
P        0.04890253       3.87886269       2.64126411       0.00000000 NULL
P        1.43900027       4.30643620       5.54403478       0.00000000 NULL
P        2.13404914       2.64126411       4.30643620       0.00000000 NULL
P        0.74395140       5.54403478       3.87886269       0.00000000 NULL
8
Lattice="2.776007691540526 0.0 0.0 0.0 8.186293387423218 0.0 0.0 0.0 8.186293387423218" Properties=species:S:1:pos:R:3:initial_magmoms:R:1:castep_labels:S:1 n_minim_iter=4 pbc="T T T"
P        0.63395097       2.36986220       8.15894161       0.00000000 NULL
P        2.02195481       5.81643118       0.02735178       0.00000000 NULL
P        2.71595673       8.15894161       5.81643118       0.00000000 NULL
P        1.32795289       0.02735178       2.36986220       0.00000000 NULL
P        0.04883727       3.87930829       2.64148322       0.00000000 NULL
P        1.43684112       4.30698510       5.54481017       0.00000000 NULL
P        2.13084304       2.64148322       4.30698510       0.00000000 NULL
P        0.74283920       5.54481017       3.87930829       0.00000000 NULL
8
Lattice="2.3515470543233454 0.0 0.0 0.0 8.299643683598582 0.0 0.0 0.0 8.299643683598582" Properties=species:S:1:pos:R:3:initial_magmoms:R:1:castep_labels:S:1 n_minim_iter=5 pbc="T T T"
P        0.53624022       2.40640020       8.27356750       0.00000000 NULL
P        1.71201375       5.89324348       0.02607619       0.00000000 NULL
P        2.29990051       8.27356750       5.89324348       0.00000000 NULL
P        1.12412698       0.02607619       2.40640020       0.00000000 NULL
P        0.04214747       3.93013248       2.66652164       0.00000000 NULL
P        1.21792100       4.36951120       5.63312204       0.00000000 NULL
P        1.80580776       2.66652164       4.36951120       0.00000000 NULL
P        0.63003423       5.63312204       3.93013248       0.00000000 NULL
8
Lattice="2.4962548244521994 0.0 0.0 0.0 8.557503079020833 0.0 0.0 0.0 8.557503079020833" Properties=species:S:1:pos:R:3:initial_magmoms:R:1:castep_labels:S:1 n_minim_iter=6 pbc="T T T"
P        0.56913291       2.48166090       8.53060474       0.00000000 NULL
P        1.81726032       6.07584218       0.02689834       0.00000000 NULL
P        2.44132403       8.53060474       6.07584218       0.00000000 NULL
P        1.19319661       0.02689834       2.48166090       0.00000000 NULL
P        0.04484718       4.04973619       2.73573391       0.00000000 NULL
P        1.29297459       4.50776689       5.82176916       0.00000000 NULL
P        1.91703830       2.73573391       4.50776689       0.00000000 NULL
P        0.66891088       5.82176916       4.04973619       0.00000000 NULL
8
Lattice="2.434813376894758 0.0 0.0 0.0 8.528355756862934 0.0 0.0 0.0 8.528355756862934" Properties=species:S:1:pos:R:3:initial_magmoms:R:1:castep_labels:S:1 n_minim_iter=7 pbc="T T T"
P        0.55499297       2.47356276       8.50131779       0.00000000 NULL
P        1.77239966       6.05479300       0.02703796       0.00000000 NULL
P        2.38110300       8.50131779       6.05479300       0.00000000 NULL
P        1.16369631       0.02703796       2.47356276       0.00000000 NULL
P        0.04387495       4.03510712       2.72504404       0.00000000 NULL
P        1.26128164       4.49324863       5.80331172       0.00000000 NULL
P        1.86998498       2.72504404       4.49324863       0.00000000 NULL
P        0.65257829       5.80331172       4.03510712       0.00000000 NULL
8
Lattice="2.4199741842502 0.0 0.0 0.0 8.53087722337942 0.0 0.0 0.0 8.53087722337942" Properties=species:S:1:pos:R:3:initial_magmoms:R:1:castep_labels:S:1 n_minim_iter=8 pbc="T T T"
P        0.55148210       2.47456977       8.50357209       0.00000000 NULL
P        1.76146919       6.05630745       0.02730514       0.00000000 NULL
P        2.36646273       8.50357209       6.05630745       0.00000000 NULL
P        1.15647564       0.02730514       2.47456977       0.00000000 NULL
P        0.04373596       4.03513891       2.72257630       0.00000000 NULL
P        1.25372306       4.49573832       5.80830092       0.00000000 NULL
P        1.85871660       2.72257630       4.49573832       0.00000000 NULL
P        0.64872951       5.80830092       4.03513891       0.00000000 NULL
