28
Lattice="6.3307786671671575 0.0 0.0 0.0 8.310247887954578 0.0 0.0 0.0 10.823066859859885" Properties=species:S:1:pos:R:3:initial_magmoms:R:1:castep_labels:S:1:forces:R:3 n_minim_iter=1 energy=-149.536813001691 stress="-5.496963497306164e-05 0.0 -0.0 0.0 -0.00021935167438132263 -0.0 -0.0 -0.0 -0.00010015713362663594" free_energy=-149.536813001691 pbc="T T T"
P        1.55722594       0.13133832      -0.04964830       0.00000000 NULL       0.00284200      -0.00195900       0.00441600
P        4.77355272       8.17890957      -0.04964830       0.00000000 NULL      -0.00284200       0.00195900       0.00441600
P        1.55722594       8.17890957       5.36188513       0.00000000 NULL       0.00284200       0.00195900       0.00441500
P        4.77355272       0.13133832       5.36188513       0.00000000 NULL      -0.00284200      -0.00195900       0.00441500
P        1.11889318       8.24469690       7.56949615       0.00000000 NULL      -0.00364900       0.00243700       0.00066000
P        5.21188549       0.06555099       7.56949615       0.00000000 NULL       0.00364900      -0.00243700       0.00066000
P        1.11889318       0.06555099       2.15796272       0.00000000 NULL      -0.00364900      -0.00243700       0.00065900
P        5.21188549       8.24469690       2.15796272       0.00000000 NULL       0.00364900       0.00243700       0.00065900
P        3.03401782       1.56528978       5.44488879       0.00000000 NULL      -0.00515500       0.00197400       0.00011300
P        3.29676085       6.74495811       5.44488879       0.00000000 NULL       0.00515500      -0.00197400       0.00011300
P        3.03401782       6.74495811      10.85642222       0.00000000 NULL      -0.00515500      -0.00197400       0.00011200
P        3.29676085       1.56528978      10.85642222       0.00000000 NULL       0.00515500       0.00197400       0.00011200
P        5.11765997       6.10637519       2.63121590       0.00000000 NULL      -0.00702800      -0.00409800       0.00030300
P        1.21311869       2.20387270       2.63121590       0.00000000 NULL       0.00702800       0.00409800       0.00030300
P        5.11765997       2.20387270       8.04274933       0.00000000 NULL      -0.00702800       0.00409800       0.00030300
P        1.21311869       6.10637519       8.04274933       0.00000000 NULL       0.00702800      -0.00409800       0.00030300
P        6.01427273       5.20829266       9.91972172       0.00000000 NULL      -0.00327100       0.00455000      -0.00011400
P        0.31650594       3.10195523       9.91972172       0.00000000 NULL       0.00327100      -0.00455000      -0.00011400
P        6.01427273       3.10195523       4.50818829       0.00000000 NULL      -0.00327100      -0.00455100      -0.00011500
P        0.31650594       5.20829266       4.50818829       0.00000000 NULL       0.00327100       0.00455100      -0.00011500
P        1.05018521       4.52888044       0.66433545       0.00000000 NULL       0.00120000      -0.00051300      -0.00170100
P        5.28059345       3.78136745       0.66433545       0.00000000 NULL      -0.00120000       0.00051300      -0.00170100
P        1.05018521       3.78136745       6.07586888       0.00000000 NULL       0.00120100       0.00051300      -0.00169900
P        5.28059345       4.52888044       6.07586888       0.00000000 NULL      -0.00120100      -0.00051300      -0.00169900
P        3.13652516       2.36146015       8.83307761       0.00000000 NULL       0.00480600       0.00324400      -0.00367600
P        3.19425350       5.94878774       8.83307761       0.00000000 NULL      -0.00480600      -0.00324400      -0.00367600
P        3.13652516       5.94878774       3.42154418       0.00000000 NULL       0.00480600      -0.00324400      -0.00367700
P        3.19425350       2.36146015       3.42154418       0.00000000 NULL      -0.00480600       0.00324400      -0.00367700
