12
Lattice="4.213299999999999 2.5301351721971948e-17 0.0 -2.1066499999999992 3.6488248337649747 0.0 0.0 0.0 16.83569" Properties=species:S:1:pos:R:3:initial_magmoms:R:1:castep_labels:S:1 n_minim_iter=1 pbc="T T T"
P        1.41517605       0.00114026       0.77131030       0.00000000 NULL
P        3.50472448       1.22500829       6.38320697       0.00000000 NULL
P        1.40004946       2.42267630      11.99510363       0.00000000 NULL
P        2.33981107       1.32290115      16.36700628       0.00000000 NULL
P        1.89772846       1.36488526       5.14321295       0.00000000 NULL
P        2.08241046       0.96103844      10.75510961       0.00000000 NULL
P        1.61991610       2.70063537      15.09908858       0.00000000 NULL
P        1.06452311       0.05257082       3.87529525       0.00000000 NULL
P        3.63551078       0.89561866       9.48719191       0.00000000 NULL
P       -0.47027380       2.64165212      10.52550335       0.00000000 NULL
P        0.05404906       1.92072973      16.13740002       0.00000000 NULL
P        0.41622473       2.73526784       4.91360668       0.00000000 NULL
12
Lattice="4.2246007255069475 5.348644152328499e-16 0.0 -2.1123003627534738 3.6586115491351863 0.0 0.0 0.0 16.864070835330633" Properties=species:S:1:pos:R:3:initial_magmoms:R:1:castep_labels:S:1 n_minim_iter=2 pbc="T T T"
P        1.41893731       0.00095654       0.77273918       0.00000000 NULL
P        3.51430368       1.22835750       6.39409613       0.00000000 NULL
P        1.40366009       2.42929752      12.01545307       0.00000000 NULL
P        2.34603752       1.32632711      16.39461051       0.00000000 NULL
P        1.90294899       1.36856454       5.15189662       0.00000000 NULL
P        2.08791457       0.96371991      10.77325357       0.00000000 NULL
P        1.62427534       2.70813212      15.12421213       0.00000000 NULL
P        1.06715185       0.05259765       3.88149823       0.00000000 NULL
P        3.64547390       0.89788179       9.50285518       0.00000000 NULL
P       -0.47152379       2.64864468      10.54343445       0.00000000 NULL
P        0.05426867       1.92593764      16.16479139       0.00000000 NULL
P        0.41725510       2.74264079       4.92207750       0.00000000 NULL
12
Lattice="4.469833173866162 -6.029306893893392e-16 0.0 -2.23491658693308 3.870989079246522 0.0 0.0 0.0 17.467116701275007" Properties=species:S:1:pos:R:3:initial_magmoms:R:1:castep_labels:S:1 n_minim_iter=3 pbc="T T T"
P        1.50060410      -0.00326134       0.80310045       0.00000000 NULL
P        3.72235552       1.30119196       6.62547268       0.00000000 NULL
P        1.48179012       2.57305848      12.44784492       0.00000000 NULL
P        2.48106362       1.40058511      16.98112294       0.00000000 NULL
P        2.01635908       1.44837158       5.33637847       0.00000000 NULL
P        2.20732705       1.02203240      11.15875071       0.00000000 NULL
P        1.71884120       2.87100058      15.65780689       0.00000000 NULL
P        1.12405313       0.05305986       4.01306243       0.00000000 NULL
P        3.86185542       0.94692865       9.83543466       0.00000000 NULL
P       -0.49857479       2.80024249      10.92471165       0.00000000 NULL
P        0.05912285       2.03908941      16.74708388       0.00000000 NULL
P        0.43945193       2.90264627       5.10233941       0.00000000 NULL
12
Lattice="4.531191140778778 -3.3586768385519906e-17 0.0 -2.2655955703893884 3.9241266373174115 0.0 0.0 0.0 17.520746773186243" Properties=species:S:1:pos:R:3:initial_magmoms:R:1:castep_labels:S:1 n_minim_iter=4 pbc="T T T"
P        1.52253739      -0.00694455       0.80423271       0.00000000 NULL
P        3.77593660       1.32202834       6.64448163       0.00000000 NULL
P        1.49831271       2.60904286      12.48473056       0.00000000 NULL
P        2.51355322       1.41883276      17.03268304       0.00000000 NULL
P        2.04566931       1.46738457       5.35218520       0.00000000 NULL
P        2.23756417       1.03790932      11.19243412       0.00000000 NULL
P        1.74165504       2.91223348      15.70316719       0.00000000 NULL
P        1.13829544       0.05220078       4.02266934       0.00000000 NULL
P        3.91683621       0.95969239       9.86291827       0.00000000 NULL
P       -0.50355059       2.83626201      10.96288018       0.00000000 NULL
P        0.06109591       2.06990804      16.80312911       0.00000000 NULL
P        0.44245467       2.94208324       5.12263126       0.00000000 NULL
12
Lattice="4.557081951072691 -2.6952761867101476e-17 0.0 -2.278540975536345 3.9465487367565038 0.0 0.0 0.0 17.45202027430393" Properties=species:S:1:pos:R:3:initial_magmoms:R:1:castep_labels:S:1 n_minim_iter=5 pbc="T T T"
P        1.53349573      -0.01150242       0.79838686       0.00000000 NULL
P        3.80029548       1.33379748       6.61572695       0.00000000 NULL
P        1.50183171       2.62425369      12.43306704       0.00000000 NULL
P        2.52603072       1.42622431      16.96494523       0.00000000 NULL
P        2.05892011       1.47449463       5.33026504       0.00000000 NULL
P        2.25067209       1.04582981      11.14760514       0.00000000 NULL
P        1.75028240       2.93011906      15.63938762       0.00000000 NULL
P        1.14438321       0.05072950       4.00470744       0.00000000 NULL
P        3.94095731       0.96570019       9.82204753       0.00000000 NULL
P       -0.50350888       2.84947136      10.92567707       0.00000000 NULL
P        0.06258083       2.08576159      16.74301716       0.00000000 NULL
P        0.44092804       2.95786454       5.10833698       0.00000000 NULL
12
Lattice="4.570563776083469 -1.171342098322622e-16 0.0 -2.2852818880417343 3.9582243397052146 0.0 0.0 0.0 17.319950517436208" Properties=species:S:1:pos:R:3:initial_magmoms:R:1:castep_labels:S:1 n_minim_iter=6 pbc="T T T"
P        1.54114732      -0.01739788       0.78873947       0.00000000 NULL
P        3.81505712       1.34337168       6.56205631       0.00000000 NULL
P        1.49964121       2.63225056      12.33537315       0.00000000 NULL
P        2.53142931       1.42980352      16.83524778       0.00000000 NULL
P        2.06660295       1.47738035       5.28861410       0.00000000 NULL
P        2.25781339       1.05104049      11.06193094       0.00000000 NULL
P        1.75358073       2.93998640      15.51871439       0.00000000 NULL
P        1.14767050       0.04865227       3.97208071       0.00000000 NULL
P        3.95459443       0.96958569       9.74539755       0.00000000 NULL
P       -0.50090190       2.85428636      10.85023595       0.00000000 NULL
P        0.06384834       2.09728740      16.62355279       0.00000000 NULL
P        0.43705355       2.96487493       5.07691911       0.00000000 NULL
12
Lattice="4.653997700386521 -4.973649946944111e-16 0.0 -2.3269988501932595 4.030480237689085 0.0 0.0 0.0 16.421002684957465" Properties=species:S:1:pos:R:3:initial_magmoms:R:1:castep_labels:S:1 n_minim_iter=7 pbc="T T T"
P        1.59202141      -0.06126588       0.72518015       0.00000000 NULL
P        3.91104480       1.40936394       6.19884771       0.00000000 NULL
P        1.47793032       2.68238220      11.67251527       0.00000000 NULL
P        2.56604138       1.45223012      15.95188694       0.00000000 NULL
P        2.11330883       1.49614197       5.00455182       0.00000000 NULL
P        2.30164633       1.08210816      10.47821938       0.00000000 NULL
P        1.77126314       3.00223586      14.69773006       0.00000000 NULL
P        1.16835361       0.03284096       3.75039493       0.00000000 NULL
P        4.04137979       0.99540344       9.22406249       0.00000000 NULL
P       -0.47872095       2.88253323      10.33479929       0.00000000 NULL
P        0.07001232       2.17462913      15.80846685       0.00000000 NULL
P        0.40870862       3.00379813       4.86113173       0.00000000 NULL
12
Lattice="4.814163383649409 -8.746518052407556e-17 0.0 -2.407081691824704 4.169187788209238 0.0 0.0 0.0 15.40570541645021" Properties=species:S:1:pos:R:3:initial_magmoms:R:1:castep_labels:S:1 n_minim_iter=8 pbc="T T T"
P        1.67941881      -0.13279227       0.66782810       0.00000000 NULL
P        4.08945546       1.52081550       5.80306324       0.00000000 NULL
P        1.45237080       2.78116457      10.93829838       0.00000000 NULL
P        2.66912551       1.50359869      14.94990463       0.00000000 NULL
P        2.17744596       1.55973117       4.67943435       0.00000000 NULL
P        2.37467359       1.10585795       9.81466949       0.00000000 NULL
P        1.80521034       3.11935954      13.76636806       0.00000000 NULL
P        1.21011361       0.00367826       3.49589778       0.00000000 NULL
P        4.20592111       1.04615001       8.63113292       0.00000000 NULL
P       -0.43943684       2.96976806       9.74662514       0.00000000 NULL
P        0.05490553       2.30374030      14.88186028       0.00000000 NULL
P        0.38453130       3.06486723       4.61139000       0.00000000 NULL
12
Lattice="4.747029769842425 9.23882518941138e-16 0.0 -2.373514884921213 4.111048373204535 0.0 0.0 0.0 14.616115238237619" Properties=species:S:1:pos:R:3:initial_magmoms:R:1:castep_labels:S:1 n_minim_iter=9 pbc="T T T"
P        1.66298908      -0.13612718       0.63414840       0.00000000 NULL
P        4.03342483       1.50825439       5.50618681       0.00000000 NULL
P        1.42413074       2.73892118      10.37822522       0.00000000 NULL
P        2.63804296       1.48287107      14.18081021       0.00000000 NULL
P        2.14380427       1.54317669       4.43673338       0.00000000 NULL
P        2.33869741       1.08500062       9.30877179       0.00000000 NULL
P        1.77286131       3.07371356      13.05809296       0.00000000 NULL
P        1.19868509      -0.00151383       3.31401613       0.00000000 NULL
P        4.14899824       1.03884866       8.18605454       0.00000000 NULL
P       -0.42380898       2.93011997       9.25210331       0.00000000 NULL
P        0.04786104       2.27895906      14.12414173       0.00000000 NULL
P        0.37594792       3.01301773       4.38006490       0.00000000 NULL
12
Lattice="4.840594855848046 -5.947863278539397e-16 0.0 -2.420297427924022 4.19207811459268 0.0 0.0 0.0 14.54850993947149" Properties=species:S:1:pos:R:3:initial_magmoms:R:1:castep_labels:S:1 n_minim_iter=10 pbc="T T T"
P        1.69575087      -0.13924481       0.63294062       0.00000000 NULL
P        4.11330896       1.53818575       5.48244394       0.00000000 NULL
P        1.45183244       2.79313719      10.33194725       0.00000000 NULL
P        2.69296051       1.51140618      14.11461518       0.00000000 NULL
P        2.18519845       1.57646913       4.41560856       0.00000000 NULL
P        2.38273331       1.10420282       9.26511187       0.00000000 NULL
P        1.80643607       3.13635737      12.99531372       0.00000000 NULL
P        1.22121166      -0.00375915       3.29630709       0.00000000 NULL
P        4.23324454       1.05947991       8.14581041       0.00000000 NULL
P       -0.43196554       2.98964144       9.21056686       0.00000000 NULL
P        0.04717476       2.32316427      14.06007018       0.00000000 NULL
P        0.38479077       3.07135053       4.36106355       0.00000000 NULL
12
Lattice="4.87192290963871 -1.716422901994403e-16 0.0 -2.4359614548193544 4.21920900502652 0.0 0.0 0.0 14.325845469759605" Properties=species:S:1:pos:R:3:initial_magmoms:R:1:castep_labels:S:1 n_minim_iter=11 pbc="T T T"
P        1.70757827      -0.14063968       0.62434461       0.00000000 NULL
P        4.13993131       1.54912601       5.39962644       0.00000000 NULL
P        1.46037478       2.81072269      10.17490826       0.00000000 NULL
P        2.71315927       1.52083403      13.89792624       0.00000000 NULL
P        2.19826237       1.58924785       4.34736259       0.00000000 NULL
P        2.39646271       1.10912714       9.12264442       0.00000000 NULL
P        1.81632190       3.15710381      12.79483255       0.00000000 NULL
P        1.22962985      -0.00557098       3.24426890       0.00000000 NULL
P        4.26193260       1.06767619       8.01955073       0.00000000 NULL
P       -0.43317270       3.01044330       9.07076185       0.00000000 NULL
P        0.04542743       2.33884880      13.84604367       0.00000000 NULL
P        0.38774526       3.08912592       4.29548002       0.00000000 NULL
12
Lattice="4.949688312280755 -3.708504445017865e-16 0.0 -2.474844156140377 4.286555819250057 0.0 0.0 0.0 13.562704107533182" Properties=species:S:1:pos:R:3:initial_magmoms:R:1:castep_labels:S:1 n_minim_iter=12 pbc="T T T"
P        1.73715684      -0.14374680       0.59410812       0.00000000 NULL
P        4.20559828       1.57629536       5.11500949       0.00000000 NULL
P        1.48177734       2.85400728       9.63591086       0.00000000 NULL
P        2.76498463       1.54412394      13.15580086       0.00000000 NULL
P        2.22994544       1.62248497       4.11399812       0.00000000 NULL
P        2.42960239       1.11994692       8.63489949       0.00000000 NULL
P        1.83990231       3.20831187      12.10900339       0.00000000 NULL
P        1.25125758      -0.01075378       3.06720065       0.00000000 NULL
P        4.33337257       1.08899775       7.58810202       0.00000000 NULL
P       -0.43521180       3.06308176       8.59056223       0.00000000 NULL
P        0.03974343       2.37811048      13.11146360       0.00000000 NULL
P        0.39546835       3.13191942       4.06966086       0.00000000 NULL
12
Lattice="5.048206632558184 4.5272459809160047e-17 0.0 -2.524103316279092 4.371875187348482 0.0 0.0 0.0 12.588273152964383" Properties=species:S:1:pos:R:3:initial_magmoms:R:1:castep_labels:S:1 n_minim_iter=13 pbc="T T T"
P        1.77267252      -0.14529171       0.55437958       0.00000000 NULL
P        4.28769668       1.60782531       4.75047063       0.00000000 NULL
P        1.51194073       2.90934161       8.94656168       0.00000000 NULL
P        2.83021272       1.57347752      12.20915169       0.00000000 NULL
P        2.27042877       1.66429736       3.81696959       0.00000000 NULL
P        2.47166845       1.13410032       8.01306064       0.00000000 NULL
P        1.87085908       3.27264709      11.23505481       0.00000000 NULL
P        1.27858158      -0.01611204       2.84287271       0.00000000 NULL
P        4.42286928       1.11534016       7.03896376       0.00000000 NULL
P       -0.43903134       3.13014733       7.97581907       0.00000000 NULL
P        0.03283188       2.42658925      12.17191013       0.00000000 NULL
P        0.40619944       3.18701382       3.77972802       0.00000000 NULL
12
Lattice="5.141841108382863 2.962487942313064e-16 0.0 -2.5709205541914315 4.452965022082693 0.0 0.0 0.0 11.647913669605256" Properties=species:S:1:pos:R:3:initial_magmoms:R:1:castep_labels:S:1 n_minim_iter=14 pbc="T T T"
P        1.80506009      -0.14444446       0.51447283       0.00000000 NULL
P        4.36440363       1.63545014       4.39711072       0.00000000 NULL
P        1.54329792       2.96195936       8.27974861       0.00000000 NULL
P        2.89448379       1.60069984      11.29605826       0.00000000 NULL
P        2.30835249       1.70634659       3.53078248       0.00000000 NULL
P        2.50992537       1.14591861       7.41342037       0.00000000 NULL
P        1.89943679       3.33339222      10.39301559       0.00000000 NULL
P        1.30532037      -0.02173559       2.62773981       0.00000000 NULL
P        4.50800449       1.14130840       6.51037770       0.00000000 NULL
P       -0.44186468       3.19562006       7.38233109       0.00000000 NULL
P        0.02436474       2.47248897      11.26496898       0.00000000 NULL
P        0.41749993       3.23782103       3.49969320       0.00000000 NULL
12
Lattice="5.236889791369721 9.470005125123242e-17 0.0 -2.6184448956848607 4.535279596145566 0.0 0.0 0.0 11.046922409771081" Properties=species:S:1:pos:R:3:initial_magmoms:R:1:castep_labels:S:1 n_minim_iter=15 pbc="T T T"
P        1.83826952      -0.13922865       0.48339887       0.00000000 NULL
P        4.43833058       1.66160244       4.16570634       0.00000000 NULL
P        1.57873458       3.01290582       7.84801381       0.00000000 NULL
P        2.96901555       1.62668425      10.71200685       0.00000000 NULL
P        2.34363213       1.75790078       3.34739191       0.00000000 NULL
P        2.54268700       1.15069458       7.02969938       0.00000000 NULL
P        1.92622879       3.39540790       9.85834082       0.00000000 NULL
P        1.33326590      -0.02954087       2.49372588       0.00000000 NULL
P        4.59583999       1.16941259       6.17603335       0.00000000 NULL
P       -0.44072779       3.26780540       7.00560429       0.00000000 NULL
P        0.00880630       2.51969545      10.68791176       0.00000000 NULL
P        0.43192148       3.28305837       3.32329682       0.00000000 NULL
12
Lattice="5.184158004791406 1.3482171710349534e-16 0.0 -2.592079002395703 4.489612529381805 0.0 0.0 0.0 11.291342197076256" Properties=species:S:1:pos:R:3:initial_magmoms:R:1:castep_labels:S:1 n_minim_iter=16 pbc="T T T"
P        1.82212345      -0.13424852       0.48819040       0.00000000 NULL
P        4.38935891       1.64512947       4.25197113       0.00000000 NULL
P        1.56475464       2.97873160       8.01575186       0.00000000 NULL
P        2.94773625       1.60992842      10.94846439       0.00000000 NULL
P        2.31605097       1.74785028       3.42090293       0.00000000 NULL
P        2.51244978       1.13183385       7.18468366       0.00000000 NULL
P        1.90474624       3.36003930      10.08099785       0.00000000 NULL
P        1.32190549      -0.03046100       2.55343639       0.00000000 NULL
P        4.54958526       1.16003425       6.31721712       0.00000000 NULL
P       -0.43086089       3.24006273       7.16252817       0.00000000 NULL
P        0.00153281       2.49644470      10.92630890       0.00000000 NULL
P        0.42932806       3.24271764       3.39874743       0.00000000 NULL
12
Lattice="5.1982104782040155 1.0668371823814544e-16 0.0 -2.5991052391020077 4.50178232834313 0.0 0.0 0.0 11.21861673659697" Properties=species:S:1:pos:R:3:initial_magmoms:R:1:castep_labels:S:1 n_minim_iter=17 pbc="T T T"
P        1.82702773      -0.13115456       0.48211235       0.00000000 NULL
P        4.39827979       1.64782972       4.22165126       0.00000000 NULL
P        1.57200818       2.98510718       7.96119017       0.00000000 NULL
P        2.96241583       1.61413660      10.87729111       0.00000000 NULL
P        2.31911926       1.75845907       3.39821328       0.00000000 NULL
P        2.51578062       1.12918667       7.13775219       0.00000000 NULL
P        1.90792163       3.36787727      10.01805819       0.00000000 NULL
P        1.32758239      -0.03163002       2.53898037       0.00000000 NULL
P        4.56181169       1.16553510       6.27851928       0.00000000 NULL
P       -0.42880562       3.25294297       7.11799539       0.00000000 NULL
P       -0.00362320       2.50395429      10.85753430       0.00000000 NULL
P        0.43242881       3.24666741       3.37845648       0.00000000 NULL
