10
Lattice="3.884580000000001 0.0 4.9130184253008504e-17 0.0 7.3076799999999995 0.0 -0.23633889264086366 0.0 7.596524466348102" Properties=species:S:1:pos:R:3:initial_magmoms:R:1:castep_labels:S:1 n_minim_iter=1 pbc="T T T"
P        3.53143648       7.23334043       0.90181001       0.00000000 NULL
P        0.11680463       3.57950043       6.69471446       0.00000000 NULL
P        0.30710818       3.29122123       1.09679988       0.00000000 NULL
P        3.34113293       6.94506123       6.49972459       0.00000000 NULL
P        1.70566629       3.23541832       2.55242690       0.00000000 NULL
P        1.94257482       6.88925832       5.04409757       0.00000000 NULL
P        0.85894308       5.72066748       1.45188954       0.00000000 NULL
P        2.78929803       2.06682748       6.14463493       0.00000000 NULL
P        3.11643853       1.81113030       3.85089779       0.00000000 NULL
P        0.53180258       5.46497030       3.74562668       0.00000000 NULL
10
Lattice="3.8846353337168384 7.24270828092733e-19 0.0031436026285267095 1.3624997927798358e-18 7.30492357330733 6.741695105960825e-19 -0.23019475948600113 6.567520046663337e-19 7.5993750123705" Properties=species:S:1:pos:R:3:initial_magmoms:R:1:castep_labels:S:1 n_minim_iter=2 pbc="T T T"
P        3.53203407       7.23075471       0.90518628       0.00000000 NULL
P        0.12240651       3.57829293       6.69733234       0.00000000 NULL
P        0.30774978       3.29003284       1.09753057       0.00000000 NULL
P        3.34669080       6.94249463       6.50498805       0.00000000 NULL
P        1.70798296       3.23425476       2.55506355       0.00000000 NULL
P        1.94645762       6.88671655       5.04745507       0.00000000 NULL
P        0.86026955       5.71832234       1.45334479       0.00000000 NULL
P        2.79417103       2.06586056       6.14917383       0.00000000 NULL
P        3.11955345       1.81038193       3.85506440       0.00000000 NULL
P        0.53488713       5.46284372       3.74745422       0.00000000 NULL
10
Lattice="3.8860473311049826 6.779302699626385e-19 0.10023248713202168 1.3243541323836513e-18 7.218457207683142 -1.8516858166716766e-17 -0.040417646737101784 -1.9357883227647438e-17 7.686871142275396" Properties=species:S:1:pos:R:3:initial_magmoms:R:1:castep_labels:S:1 n_minim_iter=3 pbc="T T T"
P        3.55036362       7.14949044       1.00928468       0.00000000 NULL
P        0.29526607       3.54026184       6.77781895       0.00000000 NULL
P        0.32764474       3.25272022       1.11987455       0.00000000 NULL
P        3.51798495       6.86194883       6.66722908       0.00000000 NULL
P        1.77951381       3.19771179       2.63651636       0.00000000 NULL
P        2.06611588       6.80694039       5.15058727       0.00000000 NULL
P        0.90130382       5.64493480       1.49835398       0.00000000 NULL
P        2.94432587       2.03570619       6.28874965       0.00000000 NULL
P        3.21560773       1.78695950       3.98349109       0.00000000 NULL
P        0.63002196       5.39618810       3.80361254       0.00000000 NULL
10
Lattice="3.84185968791175 -4.2519574879546536e-19 0.18146881444523524 -1.158378864365018e-18 7.072905846409092 -1.6350999674714468e-17 0.12113315325975428 -1.6710318709508536e-17 7.673841682732915" Properties=species:S:1:pos:R:3:initial_magmoms:R:1:castep_labels:S:1 n_minim_iter=4 pbc="T T T"
P        3.52427495       7.00894066       1.08617544       0.00000000 NULL
P        0.43871789       3.47248774       6.76913507       0.00000000 NULL
P        0.34128730       3.18917229       1.12703740       0.00000000 NULL
P        3.62170555       6.72562521       6.72827310       0.00000000 NULL
P        1.81893678       3.13509080       2.67564007       0.00000000 NULL
P        2.14405606       6.67154372       5.17967043       0.00000000 NULL
P        0.92627991       5.52573470       1.52041203       0.00000000 NULL
P        3.03671294       1.98928178       6.33489847       0.00000000 NULL
P        3.25972949       1.74879743       4.04823266       0.00000000 NULL
P        0.70326335       5.28525036       3.80707785       0.00000000 NULL
10
Lattice="3.683400327071304 -2.831992863231727e-18 0.47949191294714394 -2.1771507175127277e-18 6.625958420688743 -1.157227176040384e-16 0.7135755457902805 -1.232285143217455e-16 7.743364347103681" Properties=species:S:1:pos:R:3:initial_magmoms:R:1:castep_labels:S:1 n_minim_iter=5 pbc="T T T"
P        3.43445147       6.57899713       1.38073333       0.00000000 NULL
P        0.96252440       3.26601792       6.84212294       0.00000000 NULL
P        0.39617861       2.99413694       1.17051490       0.00000000 NULL
P        4.00079727       6.30711615       7.05234137       0.00000000 NULL
P        1.96294373       2.94229173       2.85874378       0.00000000 NULL
P        2.43403215       6.25527094       5.36411249       0.00000000 NULL
P        1.02104878       5.15944458       1.62403093       0.00000000 NULL
P        3.37592709       1.84646537       6.59882533       0.00000000 NULL
P        3.42779264       1.63063207       4.34455191       0.00000000 NULL
P        0.96918324       4.94361128       3.87830435       0.00000000 NULL
10
Lattice="3.6326214815443416 -2.8593283967682924e-18 0.7850209101336411 -1.1398882234484638e-17 6.6689925645581845 -1.219883729494322e-16 1.3141448527494484 -1.2378293921294586e-16 8.219474413657268" Properties=species:S:1:pos:R:3:initial_magmoms:R:1:castep_labels:S:1 n_minim_iter=6 pbc="T T T"
P        3.44487058       6.63682724       1.72493700       0.00000000 NULL
P        1.50189576       3.30233095       7.27955833       0.00000000 NULL
P        0.47204237       3.01748052       1.27106683       0.00000000 NULL
P        4.47472396       6.35197680       7.73342850       0.00000000 NULL
P        2.15832729       2.95764634       3.18545249       0.00000000 NULL
P        2.78843905       6.29214262       5.81904284       0.00000000 NULL
P        1.14723601       5.18278685       1.80724174       0.00000000 NULL
P        3.79953033       1.84829057       7.19725358       0.00000000 NULL
P        3.69329645       1.63614650       4.85292900       0.00000000 NULL
P        1.25346989       4.97064278       4.15156633       0.00000000 NULL
10
Lattice="3.510559506529051 -2.2844769526178807e-18 0.742522117129319 -9.592969098843843e-18 6.424773477337209 -1.1686339578478454e-16 1.2384622490087798 -1.1962285906644343e-16 7.8439779857761796" Properties=species:S:1:pos:R:3:initial_magmoms:R:1:castep_labels:S:1 n_minim_iter=7 pbc="T T T"
P        3.31998412       6.39440059       1.63857511       0.00000000 NULL
P        1.42903764       3.18201385       6.94792500       0.00000000 NULL
P        0.45164614       2.91054331       1.21184874       0.00000000 NULL
P        4.29737562       6.12293005       7.37465137       0.00000000 NULL
P        2.07688535       2.84743844       3.04374061       0.00000000 NULL
P        2.67213641       6.05982518       5.54275950       0.00000000 NULL
P        1.10664244       4.99175618       1.72705705       0.00000000 NULL
P        3.64237932       1.77936944       6.85944306       0.00000000 NULL
P        3.55338638       1.57518813       4.63199565       0.00000000 NULL
P        1.19563538       4.78757487       3.95450446       0.00000000 NULL
10
Lattice="3.57673730016704 -6.580821641348538e-18 0.7590514167086749 -1.123351238004133e-17 6.535383733233253 -1.550947590446593e-16 1.2667599909011724 -1.6518779758601622e-16 8.020603908318233" Properties=species:S:1:pos:R:3:initial_magmoms:R:1:castep_labels:S:1 n_minim_iter=8 pbc="T T T"
P        3.38013438       6.50694123       1.67624428       0.00000000 NULL
P        1.46336291       3.23924937       7.10341105       0.00000000 NULL
P        0.46140226       2.96082722       1.23886821       0.00000000 NULL
P        4.38209503       6.22851909       7.54078712       0.00000000 NULL
P        2.11939267       2.89428035       3.11723475       0.00000000 NULL
P        2.72410462       6.16197221       5.66242058       0.00000000 NULL
P        1.13162291       5.07760790       1.76791772       0.00000000 NULL
P        3.71187439       1.80991603       7.01173761       0.00000000 NULL
P        3.62230791       1.60194584       4.73678964       0.00000000 NULL
P        1.22118938       4.86963770       4.04286569       0.00000000 NULL
10
Lattice="3.568544424244924 -6.546335434529984e-18 0.7548059853718067 -1.1066326907349586e-17 6.522105928367148 -1.548280866746278e-16 1.2589562572162605 -1.64874062099243e-16 8.00489003142237" Properties=species:S:1:pos:R:3:initial_magmoms:R:1:castep_labels:S:1 n_minim_iter=9 pbc="T T T"
P        3.36940252       6.49478920       1.67065020       0.00000000 NULL
P        1.45809817       3.23373624       7.08904582       0.00000000 NULL
P        0.45981135       2.95574315       1.23600873       0.00000000 NULL
P        4.36768934       6.21679612       7.52368729       0.00000000 NULL
P        2.11409492       2.88699253       3.11357361       0.00000000 NULL
P        2.71340576       6.14804549       5.64612241       0.00000000 NULL
P        1.13014710       5.06711928       1.76526498       0.00000000 NULL
P        3.69735359       1.80606632       6.99443104       0.00000000 NULL
P        3.61118511       1.59827193       4.72683025       0.00000000 NULL
P        1.21631558       4.85932490       4.03286577       0.00000000 NULL
10
Lattice="3.564830682217012 -6.634069333838266e-18 0.7517232523908232 -1.0960442149588658e-17 6.518500154063906 -1.5565561161818157e-16 1.2531537367803773 -1.6577339991140223e-16 8.005118261082307" Properties=species:S:1:pos:R:3:initial_magmoms:R:1:castep_labels:S:1 n_minim_iter=10 pbc="T T T"
P        3.36249925       6.49254471       1.66825464       0.00000000 NULL
P        1.45548518       3.23329464       7.08858687       0.00000000 NULL
P        0.45892407       2.95513327       1.23557310       0.00000000 NULL
P        4.35906035       6.21438335       7.52126842       0.00000000 NULL
P        2.11190238       2.88361902       3.11678607       0.00000000 NULL
P        2.70608205       6.14286910       5.64005544       0.00000000 NULL
P        1.13058030       5.06421742       1.76624543       0.00000000 NULL
P        3.68740412       1.80496734       6.99059609       0.00000000 NULL
P        3.60467237       1.59689583       4.72612328       0.00000000 NULL
P        1.21331205       4.85614591       4.03071824       0.00000000 NULL
10
Lattice="3.534451522375022 -6.634219939427411e-18 0.7283326336717282 -1.0218406521711766e-17 6.499876763588126 -1.5620361610974817e-16 1.2092602835920754 -1.6534578313845228e-16 8.024842033551154" Properties=species:S:1:pos:R:3:initial_magmoms:R:1:castep_labels:S:1 n_minim_iter=11 pbc="T T T"
P        3.30567468       6.48523301       1.65346916       0.00000000 NULL
P        1.43803713       3.23529463       7.09970551       0.00000000 NULL
P        0.45236773       2.95533768       1.23491886       0.00000000 NULL
P        4.29134408       6.20527606       7.51825581       0.00000000 NULL
P        2.09595976       2.85971124       3.15250518       0.00000000 NULL
P        2.64775205       6.10964962       5.60066949       0.00000000 NULL
P        1.13521627       5.04973864       1.77793067       0.00000000 NULL
P        3.60849554       1.79980026       6.97524401       0.00000000 NULL
P        3.55258973       1.58812826       4.73108434       0.00000000 NULL
P        1.19112208       4.83806664       4.02209033       0.00000000 NULL
10
Lattice="3.460654590370884 -4.288580276463455e-18 0.7182118780527187 -1.2600255679207718e-17 6.519351552463611 -1.7048479145141338e-16 1.1939583764392854 -1.8060389943978984e-16 8.083653930280557" Properties=species:S:1:pos:R:3:initial_magmoms:R:1:castep_labels:S:1 n_minim_iter=12 pbc="T T T"
P        3.20055022       6.51779443       1.66534512       0.00000000 NULL
P        1.45406275       3.25811865       7.13652070       0.00000000 NULL
P        0.44927374       2.97796354       1.24327572       0.00000000 NULL
P        4.20533923       6.23763931       7.55859009       0.00000000 NULL
P        2.08349200       2.83535218       3.24283311       0.00000000 NULL
P        2.57112097       6.09502795       5.55903271       0.00000000 NULL
P        1.14137632       5.07774771       1.79591977       0.00000000 NULL
P        3.51323665       1.81807194       7.00594604       0.00000000 NULL
P        3.47111301       1.58603304       4.76741558       0.00000000 NULL
P        1.18349996       4.84570881       4.03445023       0.00000000 NULL
10
Lattice="3.532673962636734 -3.810655321966293e-18 0.670273919337114 -9.407920777457229e-18 6.423928944881687 -1.6708858644689342e-16 1.0958312031181345 -1.782940186254124e-16 7.901872932399451" Properties=species:S:1:pos:R:3:initial_magmoms:R:1:castep_labels:S:1 n_minim_iter=13 pbc="T T T"
P        3.23567315       6.42357368       1.60296036       0.00000000 NULL
P        1.39283202       3.21160921       6.96918650       0.00000000 NULL
P        0.44593210       2.94217987       1.21411668       0.00000000 NULL
P        4.18257307       6.15414434       7.35803018       0.00000000 NULL
P        2.09265923       2.77765193       3.18596200       0.00000000 NULL
P        2.53584594       5.98961640       5.38618486       0.00000000 NULL
P        1.14956029       5.01288885       1.74658104       0.00000000 NULL
P        3.47894488       1.80092438       6.82556581       0.00000000 NULL
P        3.47435600       1.56057167       4.63690414       0.00000000 NULL
P        1.15414917       4.77253614       3.93524272       0.00000000 NULL
10
Lattice="3.5154162761351087 -4.006269918200546e-18 0.7114123475265232 -1.1540571239499351e-17 6.487932504953991 -1.710072573678644e-16 1.177329779222963 -1.7982819126874226e-16 8.101380238585586" Properties=species:S:1:pos:R:3:initial_magmoms:R:1:castep_labels:S:1 n_minim_iter=14 pbc="T T T"
P        3.22845926       6.48882104       1.66830732       0.00000000 NULL
P        1.46428679       3.24485479       7.14448527       0.00000000 NULL
P        0.45606086       2.97218539       1.24808705       0.00000000 NULL
P        4.23668519       6.21615164       7.56470554       0.00000000 NULL
P        2.11739467       2.80148740       3.28469255       0.00000000 NULL
P        2.57535139       6.04545365       5.52810004       0.00000000 NULL
P        1.16256259       5.06605303       1.79455626       0.00000000 NULL
P        3.53018347       1.82208678       7.01823633       0.00000000 NULL
P        3.50100590       1.57480097       4.77298426       0.00000000 NULL
P        1.19174016       4.81876722       4.03980833       0.00000000 NULL
10
Lattice="3.482682294711864 -3.921756854303445e-18 0.7051697527003935 -1.1323440358935531e-17 6.448037232787451 -1.6942728928486285e-16 1.1671135624353317 -1.7879673634053297e-16 8.023009224060512" Properties=species:S:1:pos:R:3:initial_magmoms:R:1:castep_labels:S:1 n_minim_iter=15 pbc="T T T"
P        3.19663876       6.44891200       1.65275000       0.00000000 NULL
P        1.45315710       3.22489339       7.07542898       0.00000000 NULL
P        0.45205188       2.95488045       1.23624656       0.00000000 NULL
P        4.19774398       6.17889907       7.49193242       0.00000000 NULL
P        2.09934940       2.78249028       3.25669306       0.00000000 NULL
P        2.55044646       6.00650889       5.47148592       0.00000000 NULL
P        1.15269961       5.03610432       1.77718875       0.00000000 NULL
P        3.49709625       1.81208570       6.95099024       0.00000000 NULL
P        3.46818014       1.56472125       4.72798488       0.00000000 NULL
P        1.18161572       4.78873987       4.00019410       0.00000000 NULL
