8
Lattice="5.011777533553943 8.239474305240787e-18 0.0 -2.5058887667769714 5.005971418998446 0.0 0.0 0.0 4.98163267761386" Properties=species:S:1:pos:R:3:initial_magmoms:R:1:castep_labels:S:1:forces:R:3 n_minim_iter=1 energy=-43.883600764475 stress="-0.00761781954696246 0.0 -0.0 0.0 -0.0014014675683709113 -0.0 -0.0 -0.0 0.0022960672990146175" free_energy=-43.883600764475 pbc="T T T"
P        3.66219098       1.19586289       2.43970826       0.00000000 NULL       0.06616300      -0.04113400      -0.05277600
P       -1.15630221       3.81010854       2.43970826       0.00000000 NULL      -0.06616300       0.04113400      -0.05277600
P        1.15630222       3.81010854       2.54192441       0.00000000 NULL       0.06616200       0.04113400       0.05277600
P        1.34958656       1.19586289       2.54192441       0.00000000 NULL      -0.06616200      -0.04113400       0.05277600
P        1.15784193       1.33587352       4.89503702       0.00000000 NULL      -0.00866200       0.02370300       0.00985300
P        1.34804684       3.67009792       4.89503702       0.00000000 NULL       0.00866200      -0.02370300       0.00985300
P       -1.34804683       3.67009792       0.08659566       0.00000000 NULL      -0.00866300      -0.02370300      -0.00985300
P        3.85393561       1.33587352       0.08659566       0.00000000 NULL       0.00866300       0.02370300      -0.00985300
8
Lattice="5.033737578303599 -2.2729658236398942e-17 0.0 -2.5168687891517996 5.009999582663498 0.0 0.0 0.0 4.9750722641933445" Properties=species:S:1:pos:R:3:initial_magmoms:R:1:castep_labels:S:1:forces:R:3 n_minim_iter=2 energy=-43.886024077156 stress="0.0007558194210791545 0.0 -0.0 0.0 0.0007608406826554476 -0.0 -0.0 -0.0 0.0021464697700182126" free_energy=-43.886024077156 pbc="T T T"
P        3.67854271       1.19663612       2.43625333       0.00000000 NULL       0.02509800      -0.05545700      -0.04562200
P       -1.16167392       3.81336347       2.43625333       0.00000000 NULL      -0.02509800       0.05545700      -0.04562200
P        1.16167393       3.81336347       2.53881893       0.00000000 NULL       0.02509700       0.05545700       0.04562200
P        1.35519487       1.19663612       2.53881893       0.00000000 NULL      -0.02509700      -0.05545700       0.04562200
P        1.16287528       1.33705739       4.88863583       0.00000000 NULL      -0.04078600       0.03964600       0.01552100
P        1.35399351       3.67294221       4.88863583       0.00000000 NULL       0.04078600      -0.03964600       0.01552100
P       -1.35399351       3.67294221       0.08643643       0.00000000 NULL      -0.04078700      -0.03964600      -0.01552100
P        3.87086230       1.33705739       0.08643643       0.00000000 NULL       0.04078700       0.03964600      -0.01552100
8
Lattice="5.034404149600029 -2.3571366212051406e-17 0.0 -2.5172020748000143 5.007397135990838 0.0 0.0 0.0 4.964551471206756" Properties=species:S:1:pos:R:3:initial_magmoms:R:1:castep_labels:S:1:forces:R:3 n_minim_iter=3 energy=-43.886599561433 stress="0.00047070515832042993 -0.0 0.0 -0.0 -0.0006440135080737847 0.0 0.0 0.0 0.00013255811537151474" free_energy=-43.886599561433 pbc="T T T"
P        3.67926178       1.19559314       2.43074095       0.00000000 NULL       0.02562500      -0.05321100      -0.03074300
P       -1.16205970       3.81180401       2.43074095       0.00000000 NULL      -0.02562500       0.05321100      -0.03074300
P        1.16205970       3.81180401       2.53381052       0.00000000 NULL       0.02562600       0.05321100       0.03074300
P        1.35514238       1.19559314       2.53381052       0.00000000 NULL      -0.02562600      -0.05321100       0.03074300
P        1.16273510       1.33665935       4.87841372       0.00000000 NULL      -0.04060200       0.03227100       0.02821000
P        1.35446698       3.67073780       4.87841372       0.00000000 NULL       0.04060200      -0.03227100       0.02821000
P       -1.35446697       3.67073780       0.08613775       0.00000000 NULL      -0.04060200      -0.03227100      -0.02821000
P        3.87166905       1.33665935       0.08613775       0.00000000 NULL       0.04060200       0.03227100      -0.02821000
8
Lattice="5.032037872731508 -7.209215288664782e-18 0.0 -2.516018936365754 5.01913511901113 0.0 0.0 0.0 4.957919222052607" Properties=species:S:1:pos:R:3:initial_magmoms:R:1:castep_labels:S:1:forces:R:3 n_minim_iter=4 energy=-43.887228055784 stress="-0.0003403621270136489 0.0 0.0 0.0 0.002808905934643612 -0.0 0.0 -0.0 -0.0010372180444986562" free_energy=-43.887228055784 pbc="T T T"
P        3.67839457       1.19674531       2.42648627       0.00000000 NULL       0.02390900      -0.06562400      -0.01925600
P       -1.16237562       3.82238982       2.42648627       0.00000000 NULL      -0.02390900       0.06562400      -0.01925600
P        1.16237563       3.82238982       2.53143295       0.00000000 NULL       0.02390800       0.06562400       0.01925600
P        1.35364331       1.19674531       2.53143295       0.00000000 NULL      -0.02390800      -0.06562400       0.01925600
P        1.16095727       1.34080229       4.87272136       0.00000000 NULL      -0.03379500       0.04695500       0.03046000
P        1.35506168       3.67833284       4.87272136       0.00000000 NULL       0.03379500      -0.04695500       0.03046000
P       -1.35506167       3.67833284       0.08519786       0.00000000 NULL      -0.03379500      -0.04695500      -0.03046000
P        3.87108061       1.34080229       0.08519786       0.00000000 NULL       0.03379500       0.04695500      -0.03046000
8
Lattice="5.04251084077467 -5.911595609494649e-18 0.0 -2.521255420387335 5.039831189915607 0.0 0.0 0.0 4.961575729819744" Properties=species:S:1:pos:R:3:initial_magmoms:R:1:castep_labels:S:1:forces:R:3 n_minim_iter=5 energy=-43.895079072403 stress="-0.0016159817656319624 0.0 -0.0 0.0 -0.0018259102959434959 0.0 -0.0 0.0 0.0003512555575178623" free_energy=-43.895079072403 pbc="T T T"
P        3.70212968       1.16910647       2.41108935       0.00000000 NULL      -0.01612000      -0.05387500       0.06426100
P       -1.18087426       3.87072473       2.41108935       0.00000000 NULL       0.01612000       0.05387500       0.06426100
P        1.18087426       3.87072473       2.55048638       0.00000000 NULL      -0.01611900       0.05387500      -0.06426100
P        1.34038116       1.16910647       2.55048638       0.00000000 NULL       0.01611900      -0.05387500      -0.06426100
P        1.14079423       1.36679930       4.89264031       0.00000000 NULL       0.04986100       0.00406100      -0.06108500
P        1.38046120       3.67303190       4.89264031       0.00000000 NULL      -0.04986100      -0.00406100      -0.06108500
P       -1.38046119       3.67303190       0.06893541       0.00000000 NULL       0.04986100      -0.00406200       0.06108500
P        3.90171662       1.36679930       0.06893541       0.00000000 NULL      -0.04986100       0.00406200       0.06108500
8
Lattice="5.047430204655358 -1.4645619562727247e-18 0.0 -2.523715102327679 5.062501384956594 0.0 0.0 0.0 4.954143947820244" Properties=species:S:1:pos:R:3:initial_magmoms:R:1:castep_labels:S:1:forces:R:3 n_minim_iter=6 energy=-43.900697050285 stress="-0.0024117760420189886 0.0 0.0 0.0 -0.00504410426737023 0.0 0.0 0.0 -0.00035563249618975745" free_energy=-43.900697050285 pbc="T T T"
P        3.70844375       1.14867873       2.41158363       0.00000000 NULL      -0.00859300       0.01770600       0.05025000
P       -1.18472864       3.91382267       2.41158363       0.00000000 NULL       0.00859300      -0.01770600       0.05025000
P        1.18472864       3.91382267       2.54256032       0.00000000 NULL      -0.00859300      -0.01770600      -0.05025000
P        1.33898646       1.14867873       2.54256032       0.00000000 NULL       0.00859300       0.01770600      -0.05025000
P        1.13963792       1.38454278       4.88230086       0.00000000 NULL       0.04467400      -0.00730100      -0.05988000
P        1.38407719       3.67795861       4.88230086       0.00000000 NULL      -0.04467400       0.00730100      -0.05988000
P       -1.38407718       3.67795861       0.07184309       0.00000000 NULL       0.04467500       0.00730100       0.05988000
P        3.90779229       1.38454278       0.07184309       0.00000000 NULL      -0.04467500      -0.00730100       0.05988000
8
Lattice="5.050172651093002 -9.032774562862262e-18 0.0 -2.525086325546501 5.083419941058005 0.0 0.0 0.0 4.960716230609897" Properties=species:S:1:pos:R:3:initial_magmoms:R:1:castep_labels:S:1:forces:R:3 n_minim_iter=7 energy=-43.904216402748 stress="-0.0018177142902831098 0.0 0.0 0.0 -0.00435822697540211 -0.0 0.0 -0.0 0.0002611653950270691" free_energy=-43.904216402748 pbc="T T T"
P        3.71044727       1.14817254       2.41967870       0.00000000 NULL      -0.01524600      -0.00148300       0.01146200
P       -1.18536093       3.93524741       2.41967870       0.00000000 NULL       0.01524600       0.00148300       0.01146200
P        1.18536094       3.93524741       2.54103753       0.00000000 NULL      -0.01524500       0.00148300      -0.01146200
P        1.33972539       1.14817254       2.54103753       0.00000000 NULL       0.01524500      -0.00148300      -0.01146200
P        1.14080260       1.40612606       4.87603593       0.00000000 NULL       0.02773000      -0.06652100      -0.04335900
P        1.38428373       3.67729390       4.87603593       0.00000000 NULL      -0.02773000       0.06652100      -0.04335900
P       -1.38428373       3.67729390       0.08468030       0.00000000 NULL       0.02773000       0.06652100       0.04335900
P        3.90937006       1.40612606       0.08468030       0.00000000 NULL      -0.02773000      -0.06652100       0.04335900
8
Lattice="5.056139678552191 -7.218999735029027e-18 0.0 -2.5280698392760956 5.099491295400181 0.0 0.0 0.0 4.982899940905662" Properties=species:S:1:pos:R:3:initial_magmoms:R:1:castep_labels:S:1:forces:R:3 n_minim_iter=8 energy=-43.908450808879 stress="0.00044754813615505303 -0.0 -0.0 -0.0 0.0003654327824779085 0.0 -0.0 0.0 -0.00015037617374809783" free_energy=-43.908450808879 pbc="T T T"
P        3.70661320       1.14268539       2.42990103       0.00000000 NULL       0.00655900       0.02354100      -0.03703300
P       -1.17854336       3.95680592       2.42990103       0.00000000 NULL      -0.00655900      -0.02354100      -0.03703300
P        1.17854336       3.95680592       2.55299891       0.00000000 NULL       0.00655800      -0.02354100       0.03703300
P        1.34952648       1.14268539       2.55299891       0.00000000 NULL      -0.00655800       0.02354100       0.03703300
P        1.14359355       1.40571782       4.87218278       0.00000000 NULL       0.00684700       0.02003100      -0.01557700
P        1.38447629       3.69377348       4.87218278       0.00000000 NULL      -0.00684700      -0.02003100      -0.01557700
P       -1.38447629       3.69377348       0.11071716       0.00000000 NULL       0.00684700      -0.02003100       0.01557700
P        3.91254613       1.40571782       0.11071716       0.00000000 NULL      -0.00684700       0.02003100       0.01557700
8
Lattice="5.0499400314475045 -1.0396107770234278e-17 0.0 -2.5249700157237522 5.107505214785112 0.0 0.0 0.0 5.0166929883751035" Properties=species:S:1:pos:R:3:initial_magmoms:R:1:castep_labels:S:1:forces:R:3 n_minim_iter=9 energy=-43.911168021383 stress="0.0014378617503102388 0.0 -0.0 0.0 0.002082329857584471 -0.0 -0.0 -0.0 0.0007727589164929899" free_energy=-43.911168021383 pbc="T T T"
P        3.70075884       1.14166942       2.43272212       0.00000000 NULL       0.02262100       0.02074600      -0.01725700
P       -1.17578882       3.96583581       2.43272212       0.00000000 NULL      -0.02262100      -0.02074600      -0.01725700
P        1.17578883       3.96583581       2.58397087       0.00000000 NULL       0.02262100      -0.02074600       0.01725700
P        1.34918120       1.14166942       2.58397087       0.00000000 NULL      -0.02262100       0.02074600       0.01725700
P        1.14968669       1.40985929       4.88606809       0.00000000 NULL      -0.02201100       0.02169200      -0.01364000
P        1.37528333       3.69764594       4.88606809       0.00000000 NULL       0.02201100      -0.02169200      -0.01364000
P       -1.37528332       3.69764594       0.13062490       0.00000000 NULL      -0.02201100      -0.02169200       0.01364000
P        3.90025334       1.40985929       0.13062490       0.00000000 NULL       0.02201100       0.02169200       0.01364000
8
Lattice="5.043405750655215 -9.535200489221298e-18 0.0 -2.5217028753276076 5.105169351805807 0.0 0.0 0.0 5.031221963902018" Properties=species:S:1:pos:R:3:initial_magmoms:R:1:castep_labels:S:1:forces:R:3 n_minim_iter=10 energy=-43.911941572107 stress="0.0011417999038914294 0.0 -0.0 0.0 0.0025687603003104052 -0.0 -0.0 -0.0 0.0019203945783995056" free_energy=-43.911941572107 pbc="T T T"
P        3.70175379       1.14262696       2.43588617       0.00000000 NULL       0.01871800       0.00174600      -0.01374600
P       -1.18005091       3.96254241       2.43588617       0.00000000 NULL      -0.01871800      -0.00174600      -0.01374600
P        1.18005091       3.96254241       2.59533579       0.00000000 NULL       0.01871700      -0.00174600       0.01374600
P        1.34165197       1.14262696       2.59533579       0.00000000 NULL      -0.01871700       0.00174600       0.01374600
P        1.14786885       1.40790734       4.88938715       0.00000000 NULL      -0.01158300       0.02534900       0.00291500
P        1.37383403       3.69726202       4.88938715       0.00000000 NULL       0.01158300      -0.02534900       0.00291500
P       -1.37383402       3.69726202       0.14183482       0.00000000 NULL      -0.01158400      -0.02534900      -0.00291500
P        3.89553690       1.40790734       0.14183482       0.00000000 NULL       0.01158400       0.02534900      -0.00291500
8
Lattice="5.027499710590038 -8.606335679827027e-18 0.0 -2.513749855295019 5.091993413244572 0.0 0.0 0.0 5.021253470807888" Properties=species:S:1:pos:R:3:initial_magmoms:R:1:castep_labels:S:1:forces:R:3 n_minim_iter=11 energy=-43.912619712637 stress="-0.0011498003926586244 -0.0 -0.0 -0.0 7.896125835916806e-05 0.0 -0.0 0.0 -0.002244366801637437" free_energy=-43.912619712637 pbc="T T T"
P        3.70581535       1.14593758       2.43055377       0.00000000 NULL       0.00646100      -0.02412900      -0.00019000
P       -1.19206549       3.94605585       2.43055377       0.00000000 NULL      -0.00646100       0.02412900      -0.00019000
P        1.19206550       3.94605585       2.59069970       0.00000000 NULL       0.00646000       0.02413000       0.00019000
P        1.32168436       1.14593758       2.59069970       0.00000000 NULL      -0.00646000      -0.02413000       0.00019000
P        1.14815024       1.40187280       4.88314747       0.00000000 NULL      -0.01082300      -0.00253500       0.01157400
P        1.36559962       3.69012063       4.88314747       0.00000000 NULL       0.01082300       0.00253500       0.01157400
P       -1.36559961       3.69012063       0.13810600       0.00000000 NULL      -0.01082400       0.00253500      -0.01157400
P        3.87934947       1.40187280       0.13810600       0.00000000 NULL       0.01082400      -0.00253500      -0.01157400
8
Lattice="5.029123369176856 -8.528028434434926e-18 0.0 -2.514561684588428 5.097518925257434 0.0 0.0 0.0 5.029522632826931" Properties=species:S:1:pos:R:3:initial_magmoms:R:1:castep_labels:S:1:forces:R:3 n_minim_iter=12 energy=-43.913207246099 stress="-0.001319790778595992 -0.0 0.0 -0.0 -0.0014358163415494859 0.0 0.0 0.0 -0.0005819116302406846" free_energy=-43.913207246099 pbc="T T T"
P        3.71385831       1.13845469       2.43093456       0.00000000 NULL       0.01053400       0.01799800       0.00673600
P       -1.19929662       3.95906425       2.43093456       0.00000000 NULL      -0.01053400      -0.01799800       0.00673600
P        1.19929663       3.95906425       2.59858807       0.00000000 NULL       0.01053300      -0.01799800      -0.00673600
P        1.31526506       1.13845469       2.59858807       0.00000000 NULL      -0.01053300       0.01799800      -0.00673600
P        1.14251589       1.40701935       4.88889471       0.00000000 NULL       0.01059200      -0.01552400      -0.00132100
P        1.37204580       3.69049959       4.88889471       0.00000000 NULL      -0.01059200       0.01552400      -0.00132100
P       -1.37204580       3.69049959       0.14062792       0.00000000 NULL       0.01059300       0.01552400       0.00132100
P        3.88660749       1.40701935       0.14062792       0.00000000 NULL      -0.01059300      -0.01552400       0.00132100
8
Lattice="5.026263134484096 -8.558701262618359e-18 0.0 -2.513131567242048 5.095459391404897 0.0 0.0 0.0 5.033753535388049" Properties=species:S:1:pos:R:3:initial_magmoms:R:1:castep_labels:S:1:forces:R:3 n_minim_iter=13 energy=-43.913496480835 stress="-0.0005457645493518468 -0.0 -0.0 -0.0 -0.00041723529149567706 -0.0 -0.0 -0.0 0.0006488516849528423" free_energy=-43.913496480835 pbc="T T T"
P        3.71587302       1.13976906       2.43324035       0.00000000 NULL       0.00957100       0.00668000      -0.00316200
P       -1.20274145       3.95569035       2.43324035       0.00000000 NULL      -0.00957100      -0.00668000      -0.00316200
P        1.20274146       3.95569035       2.60051318       0.00000000 NULL       0.00956900      -0.00668000       0.00316200
P        1.31039012       1.13976906       2.60051318       0.00000000 NULL      -0.00956900       0.00668000       0.00316200
P        1.14490611       1.40359255       4.89273208       0.00000000 NULL      -0.00170700      -0.00181700      -0.00490000
P        1.36822546       3.69186686       4.89273208       0.00000000 NULL       0.00170700       0.00181700      -0.00490000
P       -1.36822546       3.69186686       0.14102145       0.00000000 NULL      -0.00170700       0.00181700       0.00490000
P        3.88135703       1.40359255       0.14102145       0.00000000 NULL       0.00170700      -0.00181700       0.00490000
8
Lattice="4.98590501436005 -3.1240445057713252e-18 0.0 -2.492952507180025 5.092090948829197 0.0 0.0 0.0 5.058273165159017" Properties=species:S:1:pos:R:3:initial_magmoms:R:1:castep_labels:S:1:forces:R:3 n_minim_iter=14 energy=-43.927857084092 stress="-0.013905309838153572 -0.0 0.0 -0.0 -0.00017940727682950582 -0.0 0.0 -0.0 -0.008185534873087883" free_energy=-43.927857084092 pbc="T T T"
P        3.79815454       1.13867144       2.43741866       0.00000000 NULL       0.05343200       0.03762800      -0.01345500
P       -1.30520202       3.95341952       2.43741866       0.00000000 NULL      -0.05343200      -0.03762800      -0.01345500
P        1.30520203       3.95341952       2.62085451       0.00000000 NULL       0.05343100      -0.03762900       0.01345500
P        1.18775048       1.13867144       2.62085451       0.00000000 NULL      -0.05343100       0.03762900       0.01345500
P        1.14085656       1.38496014       4.88815664       0.00000000 NULL      -0.02083200       0.08350800       0.07694000
P        1.35209596       3.70713082       4.88815664       0.00000000 NULL       0.02083200      -0.08350800       0.07694000
P       -1.35209595       3.70713082       0.17011653       0.00000000 NULL      -0.02083200      -0.08350800      -0.07694000
P        3.84504846       1.38496014       0.17011653       0.00000000 NULL       0.02083200       0.08350800      -0.07694000
8
Lattice="4.985090995186233 -5.77388271792016e-18 0.0 -2.4925454975931167 5.0920078610040616 0.0 0.0 0.0 5.058885206587199" Properties=species:S:1:pos:R:3:initial_magmoms:R:1:castep_labels:S:1:forces:R:3 n_minim_iter=15 energy=-43.927916569692 stress="-0.014650973175681453 0.0 0.0 0.0 -0.0003086858136631637 0.0 0.0 0.0 -0.008495634766198327" free_energy=-43.927916569692 pbc="T T T"
P        3.80030687       1.13867112       2.43752578       0.00000000 NULL       0.04729000       0.04132600      -0.01366000
P       -1.30776136       3.95333675       2.43752578       0.00000000 NULL      -0.04729000      -0.04132600      -0.01366000
P        1.30776137       3.95333675       2.62135943       0.00000000 NULL       0.04729200      -0.04132500       0.01366000
P        1.18478413       1.13867112       2.62135943       0.00000000 NULL      -0.04729200       0.04132500       0.01366000
P        1.14071388       1.38453396       4.88809985       0.00000000 NULL      -0.02130200       0.08548100       0.07925600
P        1.35183163       3.70747392       4.88809985       0.00000000 NULL       0.02130200      -0.08548100       0.07925600
P       -1.35183162       3.70747392       0.17078536       0.00000000 NULL      -0.02130200      -0.08548100      -0.07925600
P        3.84437713       1.38453396       0.17078536       0.00000000 NULL       0.02130200       0.08548100      -0.07925600
8
Lattice="5.036422586032773 -1.7081804739348654e-17 0.0 -2.5182112930163867 5.094388987391893 0.0 0.0 0.0 5.045372504198107" Properties=species:S:1:pos:R:3:initial_magmoms:R:1:castep_labels:S:1:forces:R:3 n_minim_iter=16 energy=-43.945340559583 stress="-0.021497602061520894 0.0 0.0 0.0 0.005195994133688166 0.0 0.0 0.0 -0.02072542185308019" free_energy=-43.945340559583 pbc="T T T"
P        3.88598786       1.15593477       2.43397189       0.00000000 NULL       0.00644300      -0.04896000      -0.01670500
P       -1.36777656       3.93845423       2.43397189       0.00000000 NULL      -0.00644300       0.04896000      -0.01670500
P        1.36777657       3.93845423       2.61140062       0.00000000 NULL       0.00644400       0.04896000       0.01670500
P        1.15043473       1.15593477       2.61140062       0.00000000 NULL      -0.00644400      -0.04896000       0.01670500
P        1.12205291       1.38119042       4.86530191       0.00000000 NULL       0.06968200       0.14498600       0.16141500
P        1.39615839       3.71319858       4.86530191       0.00000000 NULL      -0.06968200      -0.14498600       0.16141500
P       -1.39615838       3.71319858       0.18007060       0.00000000 NULL       0.06968200      -0.14498700      -0.16141500
P        3.91436968       1.38119042       0.18007060       0.00000000 NULL      -0.06968200       0.14498700      -0.16141500
8
Lattice="5.087149584347953 -2.454387804161892e-17 0.0 -2.5435747921739766 5.09667650225335 0.0 0.0 0.0 5.059722733362052" Properties=species:S:1:pos:R:3:initial_magmoms:R:1:castep_labels:S:1:forces:R:3 n_minim_iter=17 energy=-43.967311992438 stress="-0.02273972661950351 0.0 -0.0 0.0 0.0059261535381512805 -0.0 -0.0 -0.0 -0.021841614365197676" free_energy=-43.967311992438 pbc="T T T"
P        3.96437803       1.16233466       2.43231499       0.00000000 NULL      -0.15325700      -0.04182700       0.00306700
P       -1.42080323       3.93434186       2.43231499       0.00000000 NULL       0.15325700       0.04182700       0.00306700
P        1.42080323       3.93434186       2.62740774       0.00000000 NULL      -0.15325700       0.04182600      -0.00306600
P        1.12277156       1.16233466       2.62740774       0.00000000 NULL       0.15325700      -0.04182600      -0.00306600
P        1.11695754       1.38624613       4.87630192       0.00000000 NULL       0.07895400       0.15257000       0.15885900
P        1.42661725       3.71043039       4.87630192       0.00000000 NULL      -0.07895400      -0.15257000       0.15885900
P       -1.42661725       3.71043039       0.18342081       0.00000000 NULL       0.07895400      -0.15257000      -0.15885900
P        3.97019205       1.38624613       0.18342081       0.00000000 NULL      -0.07895400       0.15257000      -0.15885900
8
Lattice="5.202530303128342 -4.083460366052287e-17 0.0 -2.601265151564171 5.10261085673309 0.0 0.0 0.0 5.091508331237985" Properties=species:S:1:pos:R:3:initial_magmoms:R:1:castep_labels:S:1:forces:R:3 n_minim_iter=18 energy=-44.008292777743 stress="0.002503076872328269 -0.0 0.0 -0.0 0.007773284807022039 0.0 0.0 0.0 -0.007522695974952523" free_energy=-44.008292777743 pbc="T T T"
P        4.07066552       1.16695382       2.43112129       0.00000000 NULL       0.05933100      -0.08055800       0.04589000
P       -1.46940036       3.93565705       2.43112129       0.00000000 NULL      -0.05933100       0.08055800       0.04589000
P        1.46940036       3.93565705       2.66038704       0.00000000 NULL       0.05933200       0.08055900      -0.04589000
P        1.13186479       1.16695382       2.66038704       0.00000000 NULL      -0.05933200      -0.08055900      -0.04589000
P        1.11361019       1.41401625       4.92057707       0.00000000 NULL       0.09857900       0.05726200       0.01483100
P        1.48765497       3.68859462       4.92057707       0.00000000 NULL      -0.09857900      -0.05726200       0.01483100
P       -1.48765496       3.68859462       0.17093126       0.00000000 NULL       0.09858000      -0.05726200      -0.01483100
P        4.08892012       1.41401625       0.17093126       0.00000000 NULL      -0.09858000       0.05726200      -0.01483100
8
Lattice="5.189970982682845 -4.7070400789188284e-17 0.0 -2.5949854913414225 5.096144339531511 0.0 0.0 0.0 5.113111077660371" Properties=species:S:1:pos:R:3:initial_magmoms:R:1:castep_labels:S:1:forces:R:3 n_minim_iter=19 energy=-44.015069609929 stress="0.002454452674615585 0.0 0.0 0.0 0.003271395799646555 -0.0 0.0 -0.0 -0.0013523041157283105" free_energy=-44.015069609929 pbc="T T T"
P        4.06319316       1.16190394       2.43893901       0.00000000 NULL       0.00028100      -0.03544800       0.03613700
P       -1.46820766       3.93424041       2.43893901       0.00000000 NULL      -0.00028100       0.03544800       0.03613700
P        1.46820767       3.93424041       2.67417207       0.00000000 NULL       0.00028200       0.03544900      -0.03613700
P        1.12677783       1.16190394       2.67417207       0.00000000 NULL      -0.00028200      -0.03544900      -0.03613700
P        1.12423764       1.41624608       4.93853666       0.00000000 NULL      -0.04636000       0.00781500      -0.00495300
P        1.47074785       3.67989828       4.93853666       0.00000000 NULL       0.04636000      -0.00781500      -0.00495300
P       -1.47074785       3.67989828       0.17457442       0.00000000 NULL      -0.04636000      -0.00781500       0.00495300
P        4.06573334       1.41624608       0.17457442       0.00000000 NULL       0.04636000       0.00781500       0.00495300
8
Lattice="5.184585682970273 -4.850594673985712e-17 0.0 -2.5922928414851363 5.090218436937444 0.0 0.0 0.0 5.119521276484831" Properties=species:S:1:pos:R:3:initial_magmoms:R:1:castep_labels:S:1:forces:R:3 n_minim_iter=20 energy=-44.016526604614 stress="-0.00038569257580732037 0.0 -0.0 0.0 0.0007420751803961225 -0.0 -0.0 -0.0 0.0008408853106403699" free_energy=-44.016526604614 pbc="T T T"
P        4.05809778       1.15747753       2.44669841       0.00000000 NULL      -0.01151600      -0.00760400      -0.00846500
P       -1.46580493       3.93274092       2.44669841       0.00000000 NULL       0.01151600       0.00760400      -0.00846500
P        1.46580494       3.93274092       2.67282287       0.00000000 NULL      -0.01151700       0.00760400       0.00846500
P        1.12648791       1.15747753       2.67282287       0.00000000 NULL       0.01151700      -0.00760400       0.00846500
P        1.11955795       1.41422878       4.94255193       0.00000000 NULL       0.00094900       0.00122000      -0.01594200
P        1.47273489       3.67598967       4.94255193       0.00000000 NULL      -0.00094900      -0.00122000      -0.01594200
P       -1.47273489       3.67598967       0.17696935       0.00000000 NULL       0.00094800      -0.00122000       0.01594200
P        4.06502774       1.41422878       0.17696935       0.00000000 NULL      -0.00094800       0.00122000       0.01594200
8
Lattice="5.184083462456229 -4.856568738865957e-17 0.0 -2.5920417312281145 5.0898943873384885 0.0 0.0 0.0 5.121037979454597" Properties=species:S:1:pos:R:3:initial_magmoms:R:1:castep_labels:S:1:forces:R:3 n_minim_iter=21 energy=-44.016675950733 stress="-4.1220809142441344e-05 -0.0 0.0 -0.0 0.0003131153383871981 -0.0 0.0 -0.0 0.00035559423326648234" free_energy=-44.016675950733 pbc="T T T"
P        4.05645859       1.15610962       2.44690342       0.00000000 NULL       0.00098400      -0.00313800      -0.00048700
P       -1.46441685       3.93378478       2.44690342       0.00000000 NULL      -0.00098400       0.00313800      -0.00048700
P        1.46441685       3.93378478       2.67413456       0.00000000 NULL       0.00098300       0.00313700       0.00048700
P        1.12762488       1.15610962       2.67413456       0.00000000 NULL      -0.00098300      -0.00313700       0.00048700
P        1.11938036       1.41429944       4.94065028       0.00000000 NULL       0.00019800       0.00059700       0.00000300
P        1.47266138       3.67559496       4.94065028       0.00000000 NULL      -0.00019800      -0.00059700       0.00000300
P       -1.47266138       3.67559496       0.18038770       0.00000000 NULL       0.00019900      -0.00059700      -0.00000300
P        4.06470311       1.41429944       0.18038770       0.00000000 NULL      -0.00019900       0.00059700      -0.00000300
