13
Lattice="4.70229 1.2599861255736767e-15 1.9188379171817023e-15 0.19734519470755993 5.656378462101507 -4.296908468888729e-15 0.9277507828847904 2.426639288087272 10.870818185121479" Properties=species:S:1:pos:R:3:initial_magmoms:R:1:castep_labels:S:1 n_minim_iter=1 pbc="T T T"
P        2.91646649       0.47888322       1.59011045       0.00000000 NULL
P        1.43664686       4.96777562       7.03874498       0.00000000 NULL
P        4.38058860       1.07447497       0.30845620       0.00000000 NULL
P        1.57194283       1.70210847       0.68737597       0.00000000 NULL
P        0.29741688       1.94005972       2.25591654       0.00000000 NULL
P        1.38782543       3.86682109       5.35848827       0.00000000 NULL
P        0.66323291       2.35286530       4.19146137       0.00000000 NULL
P        2.98474987       3.81782201       0.16663986       0.00000000 NULL
P        1.35102914       4.60994008       1.14311436       0.00000000 NULL
P        4.93893819       6.87990127       7.43023249       0.00000000 NULL
P        3.38993674       2.26089555       9.83509011       0.00000000 NULL
P        4.30247014       2.85014053       6.24352724       0.00000000 NULL
P        4.04618650       6.29800475       3.36925464       0.00000000 NULL
13
Lattice="4.712059083781187 0.0016352422882160728 0.0011878845312043712 0.19972221335173077 5.665622478423748 0.0021354200818141217 0.9332682424782716 2.43490643176041 10.904195104183465" Properties=species:S:1:pos:R:3:initial_magmoms:R:1:castep_labels:S:1 n_minim_iter=2 pbc="T T T"
P        2.92295905       0.48092792       1.59582230       0.00000000 NULL
P        1.44316535       4.97909057       7.06207012       0.00000000 NULL
P        4.39006407       1.07778170       0.31044842       0.00000000 NULL
P        1.57622597       1.70591040       0.69018798       0.00000000 NULL
P        0.29913091       1.94441599       2.26328998       0.00000000 NULL
P        1.39350023       3.87569186       5.37607477       0.00000000 NULL
P        0.66650782       2.35829200       4.20518437       0.00000000 NULL
P        2.99250951       3.82495462       0.16930560       0.00000000 NULL
P        1.35559248       4.61834070       1.14860781       0.00000000 NULL
P        4.95349524       6.89538303       7.45616509       0.00000000 NULL
P        3.40019655       2.26945254       9.86580527       0.00000000 NULL
P        4.31395114       2.85867682       6.26403503       0.00000000 NULL
P        4.05759953       6.31069065       3.38300299       0.00000000 NULL
13
Lattice="4.920756809964606 0.03768956584393923 0.028966571271646646 0.2518505152290967 5.861184364531893 0.04986827936746064 1.057268967630369 2.6147643608712774 11.624694438305607" Properties=species:S:1:pos:R:3:initial_magmoms:R:1:castep_labels:S:1 n_minim_iter=3 pbc="T T T"
P        3.06242181       0.52536874       1.72043252       0.00000000 NULL
P        1.58727101       5.22209129       7.56716640       0.00000000 NULL
P        4.59272872       1.14900469       0.35523171       0.00000000 NULL
P        1.66867586       1.78728032       0.75185130       0.00000000 NULL
P        0.33723864       2.03782525       2.42280844       0.00000000 NULL
P        1.51841486       4.06621942       5.75688115       0.00000000 NULL
P        0.73918847       2.47496782       4.50223179       0.00000000 NULL
P        3.15937255       3.97678859       0.22922802       0.00000000 NULL
P        1.45476063       4.79700500       1.26895195       0.00000000 NULL
P        5.26994560       7.22747790       8.01941385       0.00000000 NULL
P        3.62491604       2.45580655      10.53004294       0.00000000 NULL
P        4.56316151       3.04333263       6.70860238       0.00000000 NULL
P        4.30461724       6.58165968       3.68329473       0.00000000 NULL
13
Lattice="4.972125663220258 0.05815308405327519 0.06602372881236235 0.2786218968337507 5.870432708617447 0.08460514228993632 1.1636334609231327 2.6861717406230787 11.798937759672972" Properties=species:S:1:pos:R:3:initial_magmoms:R:1:castep_labels:S:1 n_minim_iter=4 pbc="T T T"
P        3.10657463       0.54163868       1.76974001       0.00000000 NULL
P        1.68029718       5.27974547       7.70951707       0.00000000 NULL
P        4.64578218       1.16895138       0.39473624       0.00000000 NULL
P        1.70149288       1.80322311       0.78118298       0.00000000 NULL
P        0.36433538       2.05887652       2.46693687       0.00000000 NULL
P        1.59206243       4.11163730       5.86625432       0.00000000 NULL
P        0.78968816       2.50329783       4.58453221       0.00000000 NULL
P        3.21101183       3.99643104       0.27723138       0.00000000 NULL
P        1.49932755       4.81834403       1.32231662       0.00000000 NULL
P        5.41329339       7.30068926       8.20342200       0.00000000 NULL
P        3.74932499       2.53256701      10.70976405       0.00000000 NULL
P        4.67359831       3.10400457       6.84292124       0.00000000 NULL
P        4.40230250       6.62693503       3.80270113       0.00000000 NULL
13
Lattice="5.006048796058432 0.07869390811688495 0.11452389711429405 0.3047541094540399 5.835550757915888 0.12237207001982607 1.2930499569897393 2.743561102389107 11.883150284226868" Properties=species:S:1:pos:R:3:initial_magmoms:R:1:castep_labels:S:1 n_minim_iter=5 pbc="T T T"
P        3.14318366       0.55306340       1.81368794       0.00000000 NULL
P        1.78541775       5.30271102       7.79743436       0.00000000 NULL
P        4.68329864       1.17986696       0.44182988       0.00000000 NULL
P        1.73031632       1.80616431       0.80862109       0.00000000 NULL
P        0.39504753       2.06676925       2.49360212       0.00000000 NULL
P        1.67252602       4.12958704       5.93561763       0.00000000 NULL
P        0.84788418       2.51478793       4.63460310       0.00000000 NULL
P        3.25204999       3.98676555       0.33271544       0.00000000 NULL
P        1.54262265       4.80541087       1.37072031       0.00000000 NULL
P        5.55695183       7.32285389       8.33839185       0.00000000 NULL
P        3.88531507       2.59653196      10.81578662       0.00000000 NULL
P        4.78444920       3.14535097       6.93337077       0.00000000 NULL
P        4.49295410       6.62462962       3.90512084       0.00000000 NULL
13
Lattice="5.06048773633704 0.11155603041399653 0.1992163059268362 0.3465686007017688 5.744747125524978 0.1699351906235863 1.5165423541792171 2.7950765115584213 11.929125345402804" Properties=species:S:1:pos:R:3:initial_magmoms:R:1:castep_labels:S:1 n_minim_iter=6 pbc="T T T"
P        3.20347268       0.56193300       1.87774036       0.00000000 NULL
P        1.96519222       5.29368285       7.87466025       0.00000000 NULL
P        4.74464640       1.18923805       0.51696493       0.00000000 NULL
P        1.77784084       1.79815830       0.84361617       0.00000000 NULL
P        0.44583164       2.06464498       2.51543543       0.00000000 NULL
P        1.80776623       4.12240741       5.99900725       0.00000000 NULL
P        0.94751787       2.50843135       4.67935791       0.00000000 NULL
P        3.31968235       3.94612681       0.41627086       0.00000000 NULL
P        1.61387841       4.75554061       1.43014012       0.00000000 NULL
P        5.79871808       7.29663981       8.48842080       0.00000000 NULL
P        4.11756882       2.66353051      10.91016177       0.00000000 NULL
P        4.97257053       3.17988078       7.02546408       0.00000000 NULL
P        4.64197782       6.57321262       4.03337638       0.00000000 NULL
13
Lattice="5.16444396444875 0.14043926544651547 0.27774048042533717 0.38567502983130564 5.657073082445536 0.17604823020955618 1.7334912639706883 2.768057042968737 11.93251756483168" Properties=species:S:1:pos:R:3:initial_magmoms:R:1:castep_labels:S:1 n_minim_iter=7 pbc="T T T"
P        3.29163622       0.55372338       1.93713953       0.00000000 NULL
P        2.14909639       5.23643406       7.89959275       0.00000000 NULL
P        4.85342866       1.19365777       0.57525998       0.00000000 NULL
P        1.84074059       1.78247889       0.85776620       0.00000000 NULL
P        0.49137340       2.05267541       2.51937450       0.00000000 NULL
P        1.94496762       4.07821237       6.02118025       0.00000000 NULL
P        1.04737476       2.47143870       4.69943490       0.00000000 NULL
P        3.42131115       3.89929444       0.47006777       0.00000000 NULL
P        1.69188962       4.70219966       1.45127839       0.00000000 NULL
P        6.07714237       7.21287349       8.56816430       0.00000000 NULL
P        4.36885781       2.66168070      10.96162523       0.00000000 NULL
P        5.19629981       3.16874848       7.07036227       0.00000000 NULL
P        4.82016984       6.49424072       4.10230799       0.00000000 NULL
13
Lattice="5.2094093363669804 0.15300837783681048 0.3322141276636846 0.40268150044211315 5.541874917556177 0.176322926814014 1.8747820980007066 2.7170237681170395 11.803372953418748" Properties=species:S:1:pos:R:3:initial_magmoms:R:1:castep_labels:S:1 n_minim_iter=8 pbc="T T T"
P        3.33647755       0.53921115       1.95942412       0.00000000 NULL
P        2.26252054       5.14186992       7.82976837       0.00000000 NULL
P        4.90291049       1.18050305       0.61411666       0.00000000 NULL
P        1.87380097       1.74870106       0.85751963       0.00000000 NULL
P        0.51531883       2.02495181       2.49435304       0.00000000 NULL
P        2.02436139       4.00454705       5.96926651       0.00000000 NULL
P        1.10988959       2.41896389       4.66180862       0.00000000 NULL
P        3.47174599       3.82433836       0.50515506       0.00000000 NULL
P        1.73001955       4.61907371       1.44770914       0.00000000 NULL
P        6.23000011       7.07629490       8.53077424       0.00000000 NULL
P        4.51810743       2.62771969      10.87729915       0.00000000 NULL
P        5.32263326       3.12264052       7.02324384       0.00000000 NULL
P        4.90845402       6.36940012       4.10322884       0.00000000 NULL
13
Lattice="5.266703102675179 0.16013077984523538 0.3499014171949777 0.4136535270050212 5.54266625971028 0.17482295778865767 1.9306512906213944 2.71433091452513 11.851682126606223" Properties=species:S:1:pos:R:3:initial_magmoms:R:1:castep_labels:S:1 n_minim_iter=9 pbc="T T T"
P        3.37793350       0.53801306       1.98130510       0.00000000 NULL
P        2.31710876       5.14397883       7.86585637       0.00000000 NULL
P        4.95969086       1.18645599       0.62749147       0.00000000 NULL
P        1.90131681       1.74960006       0.86122200       0.00000000 NULL
P        0.52533337       2.03079266       2.50448257       0.00000000 NULL
P        2.06512731       4.00677728       5.99568725       0.00000000 NULL
P        1.13845063       2.41614153       4.68475168       0.00000000 NULL
P        3.52046930       3.82609978       0.51838044       0.00000000 NULL
P        1.75635689       4.62402887       1.45448301       0.00000000 NULL
P        6.32861052       7.07889604       8.58025896       0.00000000 NULL
P        4.59749497       2.63256133      10.92983140       0.00000000 NULL
P        5.40422363       3.12858684       7.05763909       0.00000000 NULL
P        4.97625214       6.37136060       4.13079338       0.00000000 NULL
13
Lattice="5.282416781964649 0.16355701946429965 0.36476736118974534 0.41843441612207466 5.511864182991187 0.1761082338454391 1.969886982220631 2.7030019291687757 11.816078253372549" Properties=species:S:1:pos:R:3:initial_magmoms:R:1:castep_labels:S:1 n_minim_iter=10 pbc="T T T"
P        3.39286947       0.53472313       1.98750356       0.00000000 NULL
P        2.34995368       5.12016326       7.84766920       0.00000000 NULL
P        4.97648961       1.18346281       0.63867867       0.00000000 NULL
P        1.91215042       1.73996199       0.86137086       0.00000000 NULL
P        0.53118577       2.02445204       2.49777376       0.00000000 NULL
P        2.08756115       3.98844087       5.98154957       0.00000000 NULL
P        1.15650047       2.40269080       4.67453774       0.00000000 NULL
P        3.53755670       3.80590090       0.52977050       0.00000000 NULL
P        1.76733631       4.60203728       1.45385488       0.00000000 NULL
P        6.37360874       7.04422346       8.57151791       0.00000000 NULL
P        4.63975525       2.62580678      10.90560705       0.00000000 NULL
P        5.44170799       3.11781976       7.04467235       0.00000000 NULL
P        5.00246865       6.33814564       4.13196168       0.00000000 NULL
13
Lattice="5.3107240572434025 0.16818461105048904 0.38248532210208436 0.4251889366070022 5.485675854519742 0.17799818442659446 2.0188206558227706 2.6947997497001914 11.795843559828285" Properties=species:S:1:pos:R:3:initial_magmoms:R:1:castep_labels:S:1 n_minim_iter=11 pbc="T T T"
P        3.41679738       0.53208507       1.99832888       0.00000000 NULL
P        2.39291795       5.10160147       7.84077590       0.00000000 NULL
P        5.00557914       1.18250021       0.65250930       0.00000000 NULL
P        1.92870515       1.73184630       0.86295037       0.00000000 NULL
P        0.53874882       2.02096886       2.49438275       0.00000000 NULL
P        2.11762931       3.97436055       5.97567610       0.00000000 NULL
P        1.17985068       2.39125225       4.67093101       0.00000000 NULL
P        3.56491613       3.78909840       0.54426557       0.00000000 NULL
P        1.78342779       4.58452080       1.45563948       0.00000000 NULL
P        6.43795240       7.01672030       8.57685884       0.00000000 NULL
P        4.69702354       2.62306824      10.89638558       0.00000000 NULL
P        5.49528059       3.11128991       7.04202451       0.00000000 NULL
P        5.04236398       6.31067901       4.14077222       0.00000000 NULL
13
Lattice="5.48070042984223 0.19495729296963918 0.4867000873566897 0.4645273104049536 5.340360712329848 0.19374156871973514 2.307097882414681 2.659109442801791 11.674202513210252" Properties=species:S:1:pos:R:3:initial_magmoms:R:1:castep_labels:S:1 n_minim_iter=12 pbc="T T T"
P        3.56130368       0.52034174       2.06091645       0.00000000 NULL
P        2.64767486       5.00490273       7.80119155       0.00000000 NULL
P        5.17977157       1.17913119       0.73622584       0.00000000 NULL
P        2.02777075       1.68688117       0.87508805       0.00000000 NULL
P        0.58222551       2.00400047       2.47416629       0.00000000 NULL
P        2.29481143       3.90136324       5.94119496       0.00000000 NULL
P        1.31889221       2.33135206       4.64810926       0.00000000 NULL
P        3.72920442       3.69718215       0.63416418       0.00000000 NULL
P        1.87799098       4.48811199       1.46862109       0.00000000 NULL
P        6.81868129       6.87225920       8.61095656       0.00000000 NULL
P        5.03457627       2.61691964      10.83827642       0.00000000 NULL
P        5.81235653       3.08189644       7.02841115       0.00000000 NULL
P        5.27798990       6.16125895       4.19564080       0.00000000 NULL
13
Lattice="5.718569657409346 0.20609861640034338 0.5784200450229057 0.4879120635618019 5.264241053311585 0.22257290529367935 2.5718179058488584 2.676463172206364 11.592297791189372" Properties=species:S:1:pos:R:3:initial_magmoms:R:1:castep_labels:S:1 n_minim_iter=13 pbc="T T T"
P        3.75251912       0.51322525       2.12327542       0.00000000 NULL
P        2.89489584       4.97866982       7.79332821       0.00000000 NULL
P        5.41422084       1.17920311       0.81755869       0.00000000 NULL
P        2.15106068       1.65581908       0.89516871       0.00000000 NULL
P        0.60951814       2.01648023       2.46346431       0.00000000 NULL
P        2.46109822       3.88500117       5.92653959       0.00000000 NULL
P        1.45787128       2.30537155       4.63218543       0.00000000 NULL
P        3.93169993       3.64647652       0.73568036       0.00000000 NULL
P        1.96995747       4.44415907       1.48591766       0.00000000 NULL
P        7.22255497       6.81695189       8.67739382       0.00000000 NULL
P        5.37596202       2.64737618      10.80025507       0.00000000 NULL
P        6.16285394       3.09207815       7.03988251       0.00000000 NULL
P        5.53207569       6.08013507       4.26400419       0.00000000 NULL
13
Lattice="5.694751082682335 0.21383491656789622 0.5958313385948784 0.49621843351706374 5.1867639067874185 0.2276765790321334 2.611362577778818 2.6530160692519047 11.449410977357156" Properties=species:S:1:pos:R:3:initial_magmoms:R:1:castep_labels:S:1 n_minim_iter=14 pbc="T T T"
P        3.74754731       0.51229376       2.11378374       0.00000000 NULL
P        2.92407822       4.91861450       7.70714567       0.00000000 NULL
P        5.39537185       1.17317785       0.83269037       0.00000000 NULL
P        2.15303428       1.63263005       0.89409969       0.00000000 NULL
P        0.61398995       1.99370244       2.43404942       0.00000000 NULL
P        2.47639192       3.83874553       5.86043219       0.00000000 NULL
P        1.47823829       2.27564356       4.57774946       0.00000000 NULL
P        3.92721038       3.60080472       0.75218399       0.00000000 NULL
P        1.97575531       4.38503176       1.47479148       0.00000000 NULL
P        7.23560729       6.73559904       8.60177062       0.00000000 NULL
P        5.39362444       2.62852363      10.67879745       0.00000000 NULL
P        6.17011083       3.06679650       6.97267640       0.00000000 NULL
P        5.52942385       6.00031054       4.23603478       0.00000000 NULL
13
Lattice="5.737994855896715 0.22106406605620868 0.6052522722706889 0.5067292179029433 5.197715460719836 0.22958982984279463 2.645404553017718 2.661927679620969 11.48349889928513" Properties=species:S:1:pos:R:3:initial_magmoms:R:1:castep_labels:S:1 n_minim_iter=15 pbc="T T T"
P        3.77987628       0.51638710       2.12656431       0.00000000 NULL
P        2.96196322       4.93276855       7.73330056       0.00000000 NULL
P        5.43837073       1.18267999       0.84206877       0.00000000 NULL
P        2.17550045       1.63710251       0.89934684       0.00000000 NULL
P        0.61989578       2.00131838       2.44102001       0.00000000 NULL
P        2.50348251       3.85056542       5.87885064       0.00000000 NULL
P        1.49963604       2.28019180       4.59097221       0.00000000 NULL
P        3.96560784       3.61272747       0.76365715       0.00000000 NULL
P        1.99679475       4.39709519       1.47938273       0.00000000 NULL
P        7.30554455       6.75715044       8.63748485       0.00000000 NULL
P        5.44369929       2.64096371      10.71231803       0.00000000 NULL
P        6.22668865       3.08255862       6.99881262       0.00000000 NULL
P        5.57860984       6.01657434       4.25557784       0.00000000 NULL
13
Lattice="5.756411138335141 0.22563826129744755 0.61388513102532 0.5130044038841566 5.18534615124411 0.23140180561588428 2.671356138367263 2.6602273328042596 11.466424674425516" Properties=species:S:1:pos:R:3:initial_magmoms:R:1:castep_labels:S:1 n_minim_iter=16 pbc="T T T"
P        3.79651785       0.51753936       2.13063983       0.00000000 NULL
P        2.98748470       4.92533948       7.72552540       0.00000000 NULL
P        5.45752950       1.18535836       0.85018140       0.00000000 NULL
P        2.18807471       1.63362844       0.90167552       0.00000000 NULL
P        0.62311018       1.99977633       2.43731019       0.00000000 NULL
P        2.52013494       3.84531635       5.87194280       0.00000000 NULL
P        1.51520156       2.27512957       4.58425733       0.00000000 NULL
P        3.98500420       3.60777670       0.77326035       0.00000000 NULL
P        2.00837975       4.38931575       1.47846918       0.00000000 NULL
P        7.34447191       6.74792477       8.63696201       0.00000000 NULL
P        5.47335525       2.64161740      10.69969657       0.00000000 NULL
P        6.25822007       3.08377717       6.99561257       0.00000000 NULL
P        5.60306138       6.00533812       4.25813297       0.00000000 NULL
13
Lattice="5.912243292111324 0.2602038733596295 0.6820265280268338 0.5611232800756599 5.096485621944713 0.24504561595565744 2.877469417768357 2.6490282571724477 11.340626164412232" Properties=species:S:1:pos:R:3:initial_magmoms:R:1:castep_labels:S:1 n_minim_iter=17 pbc="T T T"
P        3.93562107       0.52611583       2.16438212       0.00000000 NULL
P        3.19145604       4.87309270       7.66965516       0.00000000 NULL
P        5.61852431       1.20695788       0.91467445       0.00000000 NULL
P        2.29239690       1.60847477       0.92138238       0.00000000 NULL
P        0.64611660       1.98999175       2.40904476       0.00000000 NULL
P        2.65196983       3.80869430       5.82092877       0.00000000 NULL
P        1.64019117       2.23786054       4.53400114       0.00000000 NULL
P        4.14583079       3.57435894       0.84991098       0.00000000 NULL
P        2.10095491       4.33467733       1.47107412       0.00000000 NULL
P        7.66013677       6.68328613       8.63888148       0.00000000 NULL
P        5.71155552       2.64743100      10.60713784       0.00000000 NULL
P        6.51619766       3.09641045       6.97572897       0.00000000 NULL
P        5.80116381       5.92442727       4.28024171       0.00000000 NULL
13
Lattice="6.0106331294433755 0.2584432998930652 0.7058330950217366 0.5631347025460525 5.00530160812366 0.24645355305059252 2.9510092958453567 2.610379512846101 11.105851426499783" Properties=species:S:1:pos:R:3:initial_magmoms:R:1:castep_labels:S:1 n_minim_iter=18 pbc="T T T"
P        4.03218907       0.50497886       2.15686019       0.00000000 NULL
P        3.27637105       4.79439886       7.52705910       0.00000000 NULL
P        5.71766994       1.19851433       0.93866891       0.00000000 NULL
P        2.37686419       1.56510210       0.92590868       0.00000000 NULL
P        0.60838326       1.97553619       2.35004458       0.00000000 NULL
P        2.67226830       3.75192399       5.69715385       0.00000000 NULL
P        1.71271410       2.17837025       4.42236740       0.00000000 NULL
P        4.25019382       3.52563345       0.90267932       0.00000000 NULL
P        2.13456169       4.27096128       1.41995994       0.00000000 NULL
P        7.78759074       6.56310610       8.52583951       0.00000000 NULL
P        5.77726740       2.60331528      10.38526793       0.00000000 NULL
P        6.64742339       3.07609912       6.85914881       0.00000000 NULL
P        5.85813854       5.80059160       4.22581330       0.00000000 NULL
13
Lattice="6.137764136383907 0.3153174067525993 0.7565691326480619 0.6368839112102561 5.1215784741713275 0.2910238404995278 3.122734364666612 2.7520265538041575 11.320325066591218" Properties=species:S:1:pos:R:3:initial_magmoms:R:1:castep_labels:S:1 n_minim_iter=19 pbc="T T T"
P        4.13688469       0.55278211       2.22180267       0.00000000 NULL
P        3.46180507       4.96953707       7.70630110       0.00000000 NULL
P        5.85404563       1.27931296       0.99736042       0.00000000 NULL
P        2.46270476       1.61876685       0.97181009       0.00000000 NULL
P        0.64754416       2.04271725       2.40127564       0.00000000 NULL
P        2.80387242       3.89064506       5.82760908       0.00000000 NULL
P        1.81509159       2.25404875       4.51082972       0.00000000 NULL
P        4.39424348       3.64915717       0.98193977       0.00000000 NULL
P        2.24155501       4.39415412       1.47613878       0.00000000 NULL
P        8.08051426       6.81175450       8.76800727       0.00000000 NULL
P        5.98308808       2.75852711      10.59947817       0.00000000 NULL
P        6.87010905       3.24298280       7.03071862       0.00000000 NULL
P        6.06706417       5.99145317       4.38028659       0.00000000 NULL
13
Lattice="6.031114670445893 0.300060349438069 0.7393192595588629 0.6140553638407926 5.033145002275526 0.2822910537603758 3.0539407057711876 2.695960330338969 11.12220103293319" Properties=species:S:1:pos:R:3:initial_magmoms:R:1:castep_labels:S:1 n_minim_iter=20 pbc="T T T"
P        4.06470998       0.53500896       2.18034059       0.00000000 NULL
P        3.38402771       4.87652766       7.56742450       0.00000000 NULL
P        5.75029467       1.24885608       0.97731038       0.00000000 NULL
P        2.41800709       1.58506474       0.95329489       0.00000000 NULL
P        0.62594605       2.00573920       2.35727748       0.00000000 NULL
P        2.73933415       3.81778335       5.72285602       0.00000000 NULL
P        1.77668266       2.21016731       4.43001934       0.00000000 NULL
P        4.31009010       3.58190865       0.96160522       0.00000000 NULL
P        2.19417619       4.31688084       1.44405391       0.00000000 NULL
P        7.91890475       6.67895923       8.60856720       0.00000000 NULL
P        5.86354838       2.69705492      10.41283322       0.00000000 NULL
P        6.74260160       3.17574242       6.90320616       0.00000000 NULL
P        5.94474937       5.87769938       4.29714456       0.00000000 NULL
