20
Lattice="6.635099999999856 -6.077177545709203e-07 1.2266456974863209e-06 8.177412956055297e-07 8.928149999999967 1.6885916721716049e-13 -3.317551735540927 -3.7343856333724412 7.537657136848482" Properties=species:S:1:pos:R:3:initial_magmoms:R:1:castep_labels:S:1 n_minim_iter=1 pbc="T T T"
P        0.62086679       4.98949519       2.95007352       0.00000000 NULL
P        3.93841605       0.20426846       4.58758506       0.00000000 NULL
P        6.21289490       6.40937797       0.03161032       0.00000000 NULL
P        2.89534282      -1.21561473       7.50604911       0.00000000 NULL
P        0.34561366       4.79596058       0.97084058       0.00000000 NULL
P        3.66316223       0.39780313       6.56681790       0.00000000 NULL
P        0.23165429       3.21875923       4.90383359       0.00000000 NULL
P        3.54920459       1.97500450       2.63382485       0.00000000 NULL
P        5.97891311       8.29239960       0.80880385       0.00000000 NULL
P        2.66136097      -3.09863632       6.72885550       0.00000000 NULL
P        1.77403433       0.84109118       3.89496965       0.00000000 NULL
P       -1.54351530       4.35267287       3.64268814       0.00000000 NULL
P        4.64237025      -1.60616636       3.96455557       0.00000000 NULL
P        1.32482110       6.79992988       3.57310328       0.00000000 NULL
P        3.08410574      -0.23083445       0.99691008       0.00000000 NULL
P       -0.23344476       5.42459826       6.54074819       0.00000000 NULL
P        1.44157232       4.42766020       5.94467204       0.00000000 NULL
P        4.75912278       0.76610331       1.59298685       0.00000000 NULL
P        3.38317842       5.98266098       4.84170428       0.00000000 NULL
P        0.06562819      -0.78889722       2.69595411       0.00000000 NULL
20
Lattice="6.648588399132798 -6.08953175234459e-07 1.2291393278506371e-06 8.198832599554321e-07 8.967980255568834 0.00814693747867943 -3.324295942840431 -3.744167359075151 7.574640032110102" Properties=species:S:1:pos:R:3:initial_magmoms:R:1:castep_labels:S:1 n_minim_iter=2 pbc="T T T"
P        0.62205725       5.01422889       2.97071575       0.00000000 NULL
P        3.94635070       0.20958330       4.61207267       0.00000000 NULL
P        6.22542189       6.43794020       0.03736929       0.00000000 NULL
P        2.90112560      -1.21412843       7.54541997       0.00000000 NULL
P        0.34640091       4.81821982       0.98055747       0.00000000 NULL
P        3.67069366       0.40559241       6.60223085       0.00000000 NULL
P        0.23186875       3.23740117       4.93281321       0.00000000 NULL
P        3.55616325       1.98641108       2.64997507       0.00000000 NULL
P        5.99129745       8.32987369       0.82071123       0.00000000 NULL
P        2.66700110      -3.10606188       6.76207795       0.00000000 NULL
P        1.77774479       0.84841687       3.91658418       0.00000000 NULL
P       -1.54654904       4.37539571       3.66620344       0.00000000 NULL
P        4.65201465      -1.60968122       3.98422032       0.00000000 NULL
P        1.32772130       6.83349327       3.59856836       0.00000000 NULL
P        3.09014198      -0.23112371       1.00216415       0.00000000 NULL
P       -0.23415273       5.45493605       6.58062396       0.00000000 NULL
P        1.44453849       4.45262070       5.98048920       0.00000000 NULL
P        4.76883316       0.77119133       1.60229952       0.00000000 NULL
P        3.39005948       6.01357884       4.87281416       0.00000000 NULL
P        0.06576505      -0.78976655       2.70997405       0.00000000 NULL
20
Lattice="6.807411989033247 -6.235000419893607e-07 1.2585013981352643e-06 8.450883443260627e-07 9.464249191464296 0.11767586511577904 -3.40370783401684 -3.859271619205494 8.038114880964816" Properties=species:S:1:pos:R:3:initial_magmoms:R:1:castep_labels:S:1 n_minim_iter=3 pbc="T T T"
P        0.63592709       5.32496972       3.23501576       0.00000000 NULL
P        4.03963231       0.28000712       4.92077647       0.00000000 NULL
P        6.37280831       6.79377925       0.11470006       0.00000000 NULL
P        2.96910012      -1.18880283       8.04109304       0.00000000 NULL
P        0.35574984       5.09653658       1.10688859       0.00000000 NULL
P        3.75945431       0.50844032       7.04890354       0.00000000 NULL
P        0.23408918       3.47396028       5.30034832       0.00000000 NULL
P        3.63779551       2.13101663       2.85544376       0.00000000 NULL
P        6.13743096       8.79720056       0.97715640       0.00000000 NULL
P        2.73372272      -3.19222410       7.17863661       0.00000000 NULL
P        1.82170069       0.94317832       4.18969780       0.00000000 NULL
P       -1.58200492       4.66179893       3.96609361       0.00000000 NULL
P        4.76576527      -1.64977780       4.23090898       0.00000000 NULL
P        1.36206015       7.25475451       3.92488353       0.00000000 NULL
P        3.16104846      -0.23389139       1.06818300       0.00000000 NULL
P       -0.24265809       5.83886839       7.08760890       0.00000000 NULL
P        1.47938410       4.76876827       6.43541312       0.00000000 NULL
P        4.88309061       0.83620842       1.72037943       0.00000000 NULL
P        3.47105705       6.40293185       5.26935534       0.00000000 NULL
P        0.06735084      -0.79795490       2.88643668       0.00000000 NULL
20
Lattice="6.753741487765361 -6.185842884353991e-07 1.2485792131868649e-06 8.382546185388901e-07 9.57862559260071 0.21130601744291233 -3.3768725979709266 -3.8280639896922066 8.132484814940286" Properties=species:S:1:pos:R:3:initial_magmoms:R:1:castep_labels:S:1 n_minim_iter=4 pbc="T T T"
P        0.62922649       5.41861042       3.34247595       0.00000000 NULL
P        4.00609646       0.33195046       5.00131636       0.00000000 NULL
P        6.32177641       6.87587803       0.18093271       0.00000000 NULL
P        2.94490346      -1.12531757       8.16286046       0.00000000 NULL
P        0.35346438       5.16917808       1.17581389       0.00000000 NULL
P        3.73033360       0.58138285       7.16797832       0.00000000 NULL
P        0.22954465       3.56609958       5.41764065       0.00000000 NULL
P        3.60641573       2.18446138       2.92615151       0.00000000 NULL
P        6.09164498       8.90848883       1.07864255       0.00000000 NULL
P        2.71477199      -3.15792833       7.26515053       0.00000000 NULL
P        1.81050464       0.99458503       4.26642797       0.00000000 NULL
P       -1.56636573       4.75597625       4.07736353       0.00000000 NULL
P        4.72953116      -1.62699361       4.28396035       0.00000000 NULL
P        1.35266128       7.37755436       4.05983222       0.00000000 NULL
P        3.13518438      -0.22725561       1.08300351       0.00000000 NULL
P       -0.24168694       5.97781665       7.26078847       0.00000000 NULL
P        1.46647508       4.88600751       6.58672287       0.00000000 NULL
P        4.84334635       0.86455322       1.75706974       0.00000000 NULL
P        3.44342383       6.52857022       5.41507853       0.00000000 NULL
P        0.06655287      -0.77800924       2.92871357       0.00000000 NULL
20
Lattice="6.633174735962288 -6.075414170636662e-07 1.226289769533858e-06 8.22541473830209e-07 9.662573369230156 0.33789093216327953 -3.316589222383744 -3.756306647163937 8.169735992237092" Properties=species:S:1:pos:R:3:initial_magmoms:R:1:castep_labels:S:1 n_minim_iter=5 pbc="T T T"
P        0.61545552       5.50622973       3.45243772       0.00000000 NULL
P        3.93204213       0.40003628       5.05519065       0.00000000 NULL
P        6.20787524       6.93673792       0.27052979       0.00000000 NULL
P        2.89128567      -1.03047232       8.23709942       0.00000000 NULL
P        0.34790137       5.22951758       1.25740812       0.00000000 NULL
P        3.66448721       0.67674848       7.25022015       0.00000000 NULL
P        0.22172171       3.66562991       5.51688547       0.00000000 NULL
P        3.53830941       2.24063618       2.99074275       0.00000000 NULL
P        5.98641911       8.99263138       1.20612994       0.00000000 NULL
P        2.66982951      -3.08636575       7.30149919       0.00000000 NULL
P        1.78332644       1.05719300       4.32292249       0.00000000 NULL
P       -1.53326055       4.84907340       4.18470508       0.00000000 NULL
P        4.64688465      -1.58230903       4.30848764       0.00000000 NULL
P        1.33029813       7.48857492       4.19914099       0.00000000 NULL
P        3.07808139      -0.21656489       1.09034826       0.00000000 NULL
P       -0.23850657       6.12283106       7.41727980       0.00000000 NULL
P        1.43827880       5.00931881       6.72010687       0.00000000 NULL
P        4.75486670       0.89694705       1.78752181       0.00000000 NULL
P        3.38121721       6.65076062       5.55418229       0.00000000 NULL
P        0.06462965      -0.74449451       2.95344588       0.00000000 NULL
20
Lattice="6.3374674520755745 -5.804571883337357e-07 1.1716217059626061e-06 7.871317019469354e-07 9.819271816845234 0.6070605921946612 -3.168735565243868 -3.5946005631509235 8.167650040806363" Properties=species:S:1:pos:R:3:initial_magmoms:R:1:castep_labels:S:1 n_minim_iter=6 pbc="T T T"
P        0.58242031       5.68154150       3.65543370       0.00000000 NULL
P        3.75115330       0.54312908       5.11927832       0.00000000 NULL
P        5.92845255       7.05308846       0.46124493       0.00000000 NULL
P        2.75971665      -0.82841828       8.31346789       0.00000000 NULL
P        0.33451829       5.34551928       1.42127281       0.00000000 NULL
P        3.50325051       0.87915134       7.35343911       0.00000000 NULL
P        0.20323441       3.86956862       5.67224988       0.00000000 NULL
P        3.37196847       2.35510203       3.10246199       0.00000000 NULL
P        5.72737449       9.14732389       1.46803888       0.00000000 NULL
P        2.55863858      -2.92265367       7.30667387       0.00000000 NULL
P        1.71661197       1.18756715       4.39911753       0.00000000 NULL
P       -1.45212140       5.03710380       4.37559373       0.00000000 NULL
P        4.44440267      -1.47846282       4.31844987       0.00000000 NULL
P        1.27566976       7.70313327       4.45626240       0.00000000 NULL
P        2.93768219      -0.19500200       1.09343878       0.00000000 NULL
P       -0.23105215       6.41967273       7.68127293       0.00000000 NULL
P        1.36968117       5.25872964       6.93895331       0.00000000 NULL
P        4.53841544       0.96594080       1.83575899       0.00000000 NULL
P        3.22759639       6.89364311       5.79697023       0.00000000 NULL
P        0.05886249      -0.66897244       2.97774159       0.00000000 NULL
20
Lattice="6.149879743003803 -5.632757770823692e-07 1.1369419488768925e-06 7.88290331136311e-07 10.064928977581053 0.7224994664183784 -3.074941712320198 -3.5998916926870184 8.173749379360999" Properties=species:S:1:pos:R:3:initial_magmoms:R:1:castep_labels:S:1 n_minim_iter=7 pbc="T T T"
P        0.56242160       5.85923718       3.75039627       0.00000000 NULL
P        3.63736073       0.60579945       5.14585391       0.00000000 NULL
P        5.74964251       7.24110940       0.54281507       0.00000000 NULL
P        2.67470046      -0.77607315       8.35343589       0.00000000 NULL
P        0.32805495       5.48843457       1.49661080       0.00000000 NULL
P        3.40299332       0.97660211       7.39963930       0.00000000 NULL
P        0.18815576       4.02141660       5.73268143       0.00000000 NULL
P        3.26309597       2.44362010       3.16356862       0.00000000 NULL
P        5.56464968       9.36164936       1.58078525       0.00000000 NULL
P        2.48970762      -2.89661309       7.31546565       0.00000000 NULL
P        1.67790744       1.25872059       4.42831196       0.00000000 NULL
P       -1.39703208       5.20631640       4.46793750       0.00000000 NULL
P        4.31992424      -1.44558423       4.32695411       0.00000000 NULL
P        1.24498518       7.91062074       4.56929633       0.00000000 NULL
P        2.84538158      -0.19833182       1.09130465       0.00000000 NULL
P       -0.22955890       6.66336859       7.80494524       0.00000000 NULL
P        1.32603354       5.44387140       7.03506648       0.00000000 NULL
P        4.40097396       1.02116509       1.86118398       0.00000000 NULL
P        3.12623818       7.10692206       5.90056631       0.00000000 NULL
P        0.05129814      -0.64188534       2.99568369       0.00000000 NULL
20
Lattice="6.018441029655937 -5.512371281655523e-07 1.11264258146383e-06 7.750783774192336e-07 9.949647977568649 0.7368510621023864 -3.009222324483359 -3.539556560776175 8.035076697918445" Properties=species:S:1:pos:R:3:initial_magmoms:R:1:castep_labels:S:1 n_minim_iter=8 pbc="T T T"
P        0.55115368       5.80396043       3.71029190       0.00000000 NULL
P        3.56037347       0.60613034       5.06163717       0.00000000 NULL
P        5.62532660       7.16646426       0.55379890       0.00000000 NULL
P        2.61610394      -0.75637387       8.21813093       0.00000000 NULL
P        0.32266752       5.42827247       1.49005100       0.00000000 NULL
P        3.33188655       0.98181834       7.28187798       0.00000000 NULL
P        0.17836108       3.98895232       5.64193842       0.00000000 NULL
P        3.18758192       2.42113852       3.12999051       0.00000000 NULL
P        5.44846946       9.23969438       1.57885856       0.00000000 NULL
P        2.43924681      -2.82960395       7.19307121       0.00000000 NULL
P        1.64792743       1.25315218       4.35364509       0.00000000 NULL
P       -1.36129274       5.15693895       4.41828328       0.00000000 NULL
P        4.23190108      -1.39874091       4.25604486       0.00000000 NULL
P        1.22268136       7.80883156       4.51588446       0.00000000 NULL
P        2.78179890      -0.20133833       1.07001335       0.00000000 NULL
P       -0.22742222       6.61142925       7.70191543       0.00000000 NULL
P        1.29614043       5.38653870       6.93460151       0.00000000 NULL
P        4.30536149       1.02355194       1.83732783       0.00000000 NULL
P        3.05563606       7.02925960       5.81932385       0.00000000 NULL
P        0.04641537      -0.61916873       2.95260503       0.00000000 NULL
20
Lattice="6.060455755379896 -5.55085313483285e-07 1.1204099373119672e-06 7.830632463274102e-07 10.071130275230313 0.753845819566651 -3.0302297094103294 -3.576021125273738 8.13636369367726" Properties=species:S:1:pos:R:3:initial_magmoms:R:1:castep_labels:S:1 n_minim_iter=9 pbc="T T T"
P        0.55599456       5.87860886       3.76355414       0.00000000 NULL
P        3.58622170       0.61649965       5.12665670       0.00000000 NULL
P        5.66405485       7.25680736       0.56611893       0.00000000 NULL
P        2.63382480      -0.76169924       8.32409267       0.00000000 NULL
P        0.32558851       5.49488025       1.51452789       0.00000000 NULL
P        3.35581489       1.00022829       7.37568286       0.00000000 NULL
P        0.17806268       4.04126200       5.71495739       0.00000000 NULL
P        3.20829088       2.45384657       3.17525330       0.00000000 NULL
P        5.48738545       9.34785821       1.60580732       0.00000000 NULL
P        2.45715540      -2.85275005       7.28440421       0.00000000 NULL
P        1.65983299       1.27179685       4.40874970       0.00000000 NULL
P       -1.37039454       5.22331200       4.48146042       0.00000000 NULL
P        4.26290506      -1.40646613       4.31017231       0.00000000 NULL
P        1.23267799       7.90157451       4.58003877       0.00000000 NULL
P        2.79984339      -0.20603531       1.08314398       0.00000000 NULL
P       -0.23038510       6.70114396       7.80706656       0.00000000 NULL
P        1.30513958       5.45383689       7.02712702       0.00000000 NULL
P        4.33536801       1.04127148       1.86308409       0.00000000 NULL
P        3.07607311       7.11642824       5.89788406       0.00000000 NULL
P        0.04584507      -0.62131964       2.99232658       0.00000000 NULL
20
Lattice="6.043409271560225 -5.535240030399518e-07 1.1172585159259542e-06 7.807641033751717e-07 10.059821951596641 0.7606797199035245 -3.0217064638398408 -3.565521610859264 8.121764485608539" Properties=species:S:1:pos:R:3:initial_magmoms:R:1:castep_labels:S:1 n_minim_iter=10 pbc="T T T"
P        0.55501153       5.87565483       3.76344850       0.00000000 NULL
P        3.57671544       0.61864487       5.11899702       0.00000000 NULL
P        5.64777194       7.25081755       0.57120794       0.00000000 NULL
P        2.62606514      -0.75651823       8.31123835       0.00000000 NULL
P        0.32508739       5.48961640       1.51743525       0.00000000 NULL
P        3.34679054       1.00468334       7.36501019       0.00000000 NULL
P        0.17622963       4.04092810       5.70740666       0.00000000 NULL
P        3.19793459       2.45337167       3.17503872       0.00000000 NULL
P        5.47251534       9.33390626       1.61054556       0.00000000 NULL
P        2.45080854      -2.83960691       7.27190067       0.00000000 NULL
P        1.65602845       1.27347091       4.40139293       0.00000000 NULL
P       -1.36567584       5.22082914       4.48105188       0.00000000 NULL
P        4.25193481      -1.39657431       4.30316470       0.00000000 NULL
P        1.23023097       7.89087389       4.57928107       0.00000000 NULL
P        2.79135551      -0.20708218       1.08077561       0.00000000 NULL
P       -0.23034974       6.70138202       7.80166962       0.00000000 NULL
P        1.30112794       5.45014205       7.02049783       0.00000000 NULL
P        4.32283312       1.04415751       1.86194796       0.00000000 NULL
P        3.06661348       7.11057586       5.89340885       0.00000000 NULL
P        0.04490867      -0.61627607       2.98903648       0.00000000 NULL
20
Lattice="6.0255013793229555 -5.518837950438108e-07 1.1139478440511423e-06 7.785394079927763e-07 10.062263836772278 0.7739231962980084 -3.0127525156302104 -3.5553620768570493 8.115487339715605" Properties=species:S:1:pos:R:3:initial_magmoms:R:1:castep_labels:S:1 n_minim_iter=11 pbc="T T T"
P        0.55447903       5.88321739       3.77166814       0.00000000 NULL
P        3.56722899       0.62368373       5.11774370       0.00000000 NULL
P        5.63042238       7.25629455       0.58098916       0.00000000 NULL
P        2.61766953      -0.74939381       8.30842345       0.00000000 NULL
P        0.32485472       5.49239952       1.52580119       0.00000000 NULL
P        3.33760392       1.01450164       7.36361058       0.00000000 NULL
P        0.17351301       4.04886852       5.70760249       0.00000000 NULL
P        3.18626403       2.45803267       3.18180922       0.00000000 NULL
P        5.45723750       9.33032077       1.62215105       0.00000000 NULL
P        2.44448465      -2.82342000       7.26726150       0.00000000 NULL
P        1.65233042       1.27905837       4.39895526       0.00000000 NULL
P       -1.36041992       5.22784310       4.49045588       0.00000000 NULL
P        4.24106759      -1.38291130       4.30105700       0.00000000 NULL
P        1.22831769       7.88981229       4.58835509       0.00000000 NULL
P        2.78202531      -0.20938538       1.07931913       0.00000000 NULL
P       -0.23072599       6.71628665       7.81009242       0.00000000 NULL
P        1.29672617       5.45551413       7.02514688       0.00000000 NULL
P        4.30947741       1.05138685       1.86426525       0.00000000 NULL
P        3.05621754       7.11592514       5.89916409       0.00000000 NULL
P        0.04346668      -0.60902393       2.99024757       0.00000000 NULL
20
Lattice="5.798079784929472 -5.310539445754663e-07 1.0719039079805899e-06 7.459882670766724e-07 10.123217932067346 0.9801954409121657 -2.899041690484939 -3.4067105226169656 8.037956336717686" Properties=species:S:1:pos:R:3:initial_magmoms:R:1:castep_labels:S:1 n_minim_iter=12 pbc="T T T"
P        0.55065777       6.01133218       3.90440792       0.00000000 NULL
P        3.44969695       0.70517461       5.11374513       0.00000000 NULL
P        5.40931066       7.35485525       0.73369704       0.00000000 NULL
P        2.51026864      -0.63834882       8.28445673       0.00000000 NULL
P        0.32283828       5.54850341       1.65719856       0.00000000 NULL
P        3.22187672       1.16800342       7.36095440       0.00000000 NULL
P        0.13749383       4.17846046       5.72948768       0.00000000 NULL
P        3.03653402       2.53804640       3.28866521       0.00000000 NULL
P        5.26334845       9.30425409       1.80363819       0.00000000 NULL
P        2.36430646      -2.58774763       7.21451552       0.00000000 NULL
P        1.60361390       1.36723940       4.37500194       0.00000000 NULL
P       -1.29542568       5.34926773       4.64315042       0.00000000 NULL
P        4.10454747      -1.18475375       4.28102445       0.00000000 NULL
P        1.20550832       7.90126042       4.73712884       0.00000000 NULL
P        2.66391553      -0.24219916       1.06096813       0.00000000 NULL
P       -0.23512497       6.95870609       7.95718462       0.00000000 NULL
P        1.23960863       5.55484296       7.11422692       0.00000000 NULL
P        4.13864908       1.16166370       1.90392638       0.00000000 NULL
P        2.92358564       7.21876091       6.00427332       0.00000000 NULL
P        0.02454559      -0.50225402       3.01387953       0.00000000 NULL
20
Lattice="6.082207281122045 -5.570775650511165e-07 1.1244311902341432e-06 7.456470212162832e-07 10.735119326800646 1.2851959333129912 -3.041105468752486 -3.405152139518759 8.201928990228312" Properties=species:S:1:pos:R:3:initial_magmoms:R:1:castep_labels:S:1 n_minim_iter=13 pbc="T T T"
P        0.60250713       6.44652272       4.16007230       0.00000000 NULL
P        3.64361005       0.88344381       5.32705396       0.00000000 NULL
P        5.66789383       7.83098568       0.94552858       0.00000000 NULL
P        2.62678802      -0.50101952       8.54159843       0.00000000 NULL
P        0.34531366       5.91204627       1.87114607       0.00000000 NULL
P        3.38641583       1.41792031       7.61598010       0.00000000 NULL
P        0.14718784       4.54299604       6.01425802       0.00000000 NULL
P        3.18829179       2.78697058       3.47286807       0.00000000 NULL
P        5.51782066       9.85085186       2.11719557       0.00000000 NULL
P        2.47671491      -2.52088567       7.36993139       0.00000000 NULL
P        1.64926309       1.53679157       4.52833032       0.00000000 NULL
P       -1.39184024       5.79317532       4.95879520       0.00000000 NULL
P        4.31196158      -1.11861033       4.39093190       0.00000000 NULL
P        1.27085868       8.44857674       5.09619461       0.00000000 NULL
P        2.80662131      -0.25689486       1.09898016       0.00000000 NULL
P       -0.23448296       7.58686155       8.38814580       0.00000000 NULL
P        1.28772636       6.00812151       7.48367232       0.00000000 NULL
P        4.32883058       1.32184490       2.00345420       0.00000000 NULL
P        3.06944197       7.77045197       6.38664525       0.00000000 NULL
P        0.02833819      -0.44048534       3.10048080       0.00000000 NULL
20
Lattice="5.820362187574334 -5.33094819830303e-07 1.0760233053402793e-06 7.073144972314289e-07 10.166911679256302 1.211034547466986 -2.9101828350442354 -3.2300986965803458 7.818415410024262" Properties=species:S:1:pos:R:3:initial_magmoms:R:1:castep_labels:S:1 n_minim_iter=14 pbc="T T T"
P        0.57570687       6.10364444       3.95598030       0.00000000 NULL
P        3.48588727       0.83316792       5.07347094       0.00000000 NULL
P        5.42350745       7.41891997       0.89240619       0.00000000 NULL
P        2.51332430      -0.48210797       8.13704577       0.00000000 NULL
P        0.33028541       5.60073048       1.77620047       0.00000000 NULL
P        3.24046510       1.33608192       7.25325068       0.00000000 NULL
P        0.14069856       4.30270778       5.72444211       0.00000000 NULL
P        3.05087995       2.63410465       3.30500897       0.00000000 NULL
P        5.27917976       9.32792658       2.00451631       0.00000000 NULL
P        2.36899666      -2.39111455       7.02493559       0.00000000 NULL
P        1.58037351       1.45163551       4.31111284       0.00000000 NULL
P       -1.32980728       5.48517720       4.71833770       0.00000000 NULL
P        4.12613540      -1.05964107       4.18583437       0.00000000 NULL
P        1.21595502       7.99645331       4.84361711       0.00000000 NULL
P        2.68861330      -0.24270275       1.04685271       0.00000000 NULL
P       -0.22156840       7.17951525       7.98259824       0.00000000 NULL
P        1.23087886       5.68587862       7.12284020       0.00000000 NULL
P        4.14106051       1.25093361       1.90661128       0.00000000 NULL
P        2.93661594       7.35643527       6.07531532       0.00000000 NULL
P        0.02643471      -0.41962282       2.95413571       0.00000000 NULL
20
Lattice="5.8071926285159865 -5.318886021572894e-07 1.0735886196688192e-06 7.059418891768583e-07 10.172074428889067 1.2210169624261233 -2.9035980647298456 -3.2238303965997708 7.87136498897202" Properties=species:S:1:pos:R:3:initial_magmoms:R:1:castep_labels:S:1 n_minim_iter=15 pbc="T T T"
P        0.57490985       6.10949675       3.98415031       0.00000000 NULL
P        3.47850547       0.83874665       5.10823292       0.00000000 NULL
P        5.41079334       7.42478888       0.89893408       0.00000000 NULL
P        2.50719495      -0.47654583       8.19344987       0.00000000 NULL
P        0.32987596       5.60419619       1.78952796       0.00000000 NULL
P        3.23347086       1.34404726       7.30285518       0.00000000 NULL
P        0.14086473       4.30915010       5.76409493       0.00000000 NULL
P        3.04446134       2.63909339       3.32828814       0.00000000 NULL
P        5.26673382       9.33192762       2.01996430       0.00000000 NULL
P        2.36313550      -2.38368454       7.07241959       0.00000000 NULL
P        1.57574103       1.45513186       4.34033454       0.00000000 NULL
P       -1.32785499       5.49311189       4.75204799       0.00000000 NULL
P        4.11681700      -1.05440820       4.21522495       0.00000000 NULL
P        1.21322140       8.00265149       4.87715852       0.00000000 NULL
P        2.68360253      -0.24260587       1.05525882       0.00000000 NULL
P       -0.21999439       7.19084942       8.03712411       0.00000000 NULL
P        1.22722867       5.69283946       7.17227636       0.00000000 NULL
P        4.13082555       1.25540382       1.92010711       0.00000000 NULL
P        2.93041805       7.36438167       6.11816271       0.00000000 NULL
P        0.02682160      -0.41613816       2.97422032       0.00000000 NULL
20
Lattice="5.783324460034309 -5.29702484426766e-07 1.0691760582690484e-06 7.035666148404024e-07 10.153424569462262 1.224625446985273 -2.8916639833018256 -3.2129832127353226 7.891953954495406" Properties=species:S:1:pos:R:3:initial_magmoms:R:1:castep_labels:S:1 n_minim_iter=16 pbc="T T T"
P        0.57308721       6.09980231       3.99465846       0.00000000 NULL
P        3.46474875       0.84063842       5.12192221       0.00000000 NULL
P        5.38808194       7.41344969       0.90084245       0.00000000 NULL
P        2.49641764      -0.47300931       8.21573894       0.00000000 NULL
P        0.32886154       5.59419405       1.79480215       0.00000000 NULL
P        3.22052236       1.34624673       7.32177844       0.00000000 NULL
P        0.14080397       4.30373791       5.77926194       0.00000000 NULL
P        3.03246650       2.63670290       3.33731858       0.00000000 NULL
P        5.24449188       9.31374129       2.02586669       0.00000000 NULL
P        2.35282765      -2.37330088       7.09071465       0.00000000 NULL
P        1.56815662       1.45363036       4.35119398       0.00000000 NULL
P       -1.32350532       5.48681072       4.76538600       0.00000000 NULL
P        4.09992020      -1.04808833       4.22725284       0.00000000 NULL
P        1.20825867       7.98852894       4.88932807       0.00000000 NULL
P        2.67382639      -0.24240593       1.05901458       0.00000000 NULL
P       -0.21783645       7.18284681       8.05756580       0.00000000 NULL
P        1.22125363       5.68401398       7.19111601       0.00000000 NULL
P        4.11291642       1.25642663       1.92546491       0.00000000 NULL
P        2.91880282       7.35316325       6.13472331       0.00000000 NULL
P        0.02714047      -0.41272242       2.98185717       0.00000000 NULL
20
Lattice="5.753618692303744 -5.269816931117611e-07 1.0636842869066493e-06 7.012616116773811e-07 10.148029066186929 1.234420437808487 -2.876811105084931 -3.2024569370901634 7.927721925219729" Properties=species:S:1:pos:R:3:initial_magmoms:R:1:castep_labels:S:1 n_minim_iter=17 pbc="T T T"
P        0.57122656       6.09910431       4.01501645       0.00000000 NULL
P        3.44803521       0.84646720       5.14712718       0.00000000 NULL
P        5.35957957       7.41341703       0.90661116       0.00000000 NULL
P        2.48276814      -0.46784587       8.25553318       0.00000000 NULL
P        0.32777867       5.59162627       1.80611054       0.00000000 NULL
P        3.20458660       1.35394529       7.35603301       0.00000000 NULL
P        0.14103381       4.30575782       5.80784567       0.00000000 NULL
P        3.01784346       2.63981377       3.35429780       0.00000000 NULL
P        5.21648509       9.30700911       2.03958357       0.00000000 NULL
P        2.33967373      -2.36143792       7.12256072       0.00000000 NULL
P        1.55788675       1.45498366       4.37107105       0.00000000 NULL
P       -1.31892230       5.49058819       4.79107188       0.00000000 NULL
P        4.07892314      -1.03977939       4.24836984       0.00000000 NULL
P        1.20211450       7.98535078       4.91377402       0.00000000 NULL
P        2.66226860      -0.24290782       1.06531751       0.00000000 NULL
P       -0.21454136       7.18847947       8.09682583       0.00000000 NULL
P        1.21339605       5.68374066       7.22660640       0.00000000 NULL
P        4.09020597       1.26183073       1.93553747       0.00000000 NULL
P        2.90462519       7.35322373       6.16686803       0.00000000 NULL
P        0.02781572      -0.40765212       2.99527540       0.00000000 NULL
20
Lattice="5.708402461766481 -5.228402775889215e-07 1.0553250617929413e-06 6.971483048394492e-07 10.13787215724605 1.2516378531054035 -2.8542029920992045 -3.1836726667454975 7.949376788115742" Properties=species:S:1:pos:R:3:initial_magmoms:R:1:castep_labels:S:1 n_minim_iter=18 pbc="T T T"
P        0.56875966       6.09735860       4.03365996       0.00000000 NULL
P        3.42296020       0.85684027       5.16735594       0.00000000 NULL
P        5.31609774       7.41237339       0.91687092       0.00000000 NULL
P        2.46189443      -0.45817487       8.28414568       0.00000000 NULL
P        0.32615423       5.58690963       1.82045436       0.00000000 NULL
P        3.18035404       1.36728928       7.38056145       0.00000000 NULL
P        0.14155608       4.30919163       5.83206232       0.00000000 NULL
P        2.99575761       2.64500732       3.36895342       0.00000000 NULL
P        5.17356245       9.29498413       2.05921763       0.00000000 NULL
P        2.31935922      -2.34078557       7.14179892       0.00000000 NULL
P        1.54157925       1.45754109       4.38514275       0.00000000 NULL
P       -1.31262169       5.49665813       4.81587246       0.00000000 NULL
P        4.04696946      -1.02526804       4.26372096       0.00000000 NULL
P        1.19276893       7.97946680       4.93729517       0.00000000 NULL
P        2.64510982      -0.24395236       1.07002443       0.00000000 NULL
P       -0.20909204       7.19815138       8.13099119       0.00000000 NULL
P        1.20131341       5.68304058       7.25652984       0.00000000 NULL
P        4.05551521       1.27115818       1.94448629       0.00000000 NULL
P        2.88323041       7.35285313       6.19747031       0.00000000 NULL
P        0.02902906      -0.39865416       3.00354539       0.00000000 NULL
