15
Lattice="5.414819999999998 5.87046890913534e-17 5.335444602156702e-16 -2.5282706399245307 7.705417557231767 1.7470560259300585e-16 -0.1509499808587236 -3.3895486232626384 7.574673871284298" Properties=species:S:1:pos:R:3:initial_magmoms:R:1:castep_labels:S:1 n_minim_iter=1 pbc="T T T"
P        2.95735617       3.81068680       4.82114812       0.00000000 NULL
P       -0.49333960       0.47850178       3.10176154       0.00000000 NULL
P       -1.41725080       1.33938436       6.68790453       0.00000000 NULL
P        4.80443822       0.20360297       1.06408110       0.00000000 NULL
P        1.29481256       4.96825570       5.18917122       0.00000000 NULL
P        2.41868303       1.07913947       1.69745412       0.00000000 NULL
P       -1.80946932       5.45198730       3.64852801       0.00000000 NULL
P       -1.79433196       6.42909927       0.79270553       0.00000000 NULL
P       -1.33476950       4.81879999       6.18015142       0.00000000 NULL
P        3.75268357       3.96947324       1.60764272       0.00000000 NULL
P        1.94503288       1.47932888       7.17027643       0.00000000 NULL
P        4.19444120       2.01209107       2.01125619       0.00000000 NULL
P        0.35439750       7.28427057       0.38135756       0.00000000 NULL
P        0.20707614       4.69755140       0.62441748       0.00000000 NULL
P        0.40189579       1.83074107       5.92675509       0.00000000 NULL
15
Lattice="5.434351825112054 -0.003011512978528401 -0.00021751329658032108 -2.5416758325169946 7.729507505218318 0.00033280138358744943 -0.14991361238123874 -3.3992157767913653 7.590262097227275" Properties=species:S:1:pos:R:3:initial_magmoms:R:1:castep_labels:S:1 n_minim_iter=2 pbc="T T T"
P        2.96568524       3.82010490       4.83099888       0.00000000 NULL
P       -0.49540542       0.48008393       3.10858831       0.00000000 NULL
P       -1.42342359       1.34413007       6.70172847       0.00000000 NULL
P        4.82165046       0.20163651       1.06588042       0.00000000 NULL
P        1.29643770       4.98243570       5.20003150       0.00000000 NULL
P        2.42638143       1.08109699       1.70104021       0.00000000 NULL
P       -1.81917627       5.46916206       3.65629790       0.00000000 NULL
P       -1.80429651       6.44892946       0.79452940       0.00000000 NULL
P       -1.34239147       4.83408732       6.19324695       0.00000000 NULL
P        3.76381746       3.97932041       1.61108434       0.00000000 NULL
P        1.95102749       1.48274983       7.18526355       0.00000000 NULL
P        4.20849281       2.01599636       2.01533688       0.00000000 NULL
P        0.35153367       7.30537349       0.38216625       0.00000000 NULL
P        0.20522954       4.71122203       0.62604907       0.00000000 NULL
P        0.40216621       1.83626314       5.93864463       0.00000000 NULL
15
Lattice="5.839886087204888 -0.06880348414745668 -0.006008370008069133 -2.824650147102286 8.22917451124174 0.006088812491751896 -0.12813526237661854 -3.6006674390290487 7.906038909554729" Properties=species:S:1:pos:R:3:initial_magmoms:R:1:castep_labels:S:1 n_minim_iter=3 pbc="T T T"
P        3.13514238       4.01171228       5.02841590       0.00000000 NULL
P       -0.53918951       0.51223139       3.24683900       0.00000000 NULL
P       -1.55386290       1.44152632       6.98108413       0.00000000 NULL
P        5.17874919       0.15755723       1.10076988       0.00000000 NULL
P        1.32602012       5.27361513       5.41811784       0.00000000 NULL
P        2.58479017       1.11977512       1.77275917       0.00000000 NULL
P       -2.02489180       5.82445946       3.81266928       0.00000000 NULL
P       -2.01515105       6.85974360       0.83036179       0.00000000 NULL
P       -1.50491534       5.14970340       6.45723675       0.00000000 NULL
P        3.99199700       4.18038661       1.67904719       0.00000000 NULL
P        2.07298186       1.55052376       7.48751086       0.00000000 NULL
P        4.49855126       2.09363459       2.09632332       0.00000000 NULL
P        0.28755050       7.74130573       0.39680098       0.00000000 NULL
P        0.16388178       4.99349817       0.65817972       0.00000000 NULL
P        0.40537868       1.94899735       6.17803624       0.00000000 NULL
15
Lattice="5.920570893004653 -0.1079235590798417 -0.03573331916028107 -2.9179920380267848 8.323287931188725 -0.004952552887030236 -0.14747787569166568 -3.657439204646696 7.917275295657439" Properties=species:S:1:pos:R:3:initial_magmoms:R:1:castep_labels:S:1 n_minim_iter=4 pbc="T T T"
P        3.12368186       4.01301554       4.99875834       0.00000000 NULL
P       -0.56659255       0.50866803       3.25000286       0.00000000 NULL
P       -1.61938673       1.44136485       6.98318689       0.00000000 NULL
P        5.24435315       0.12085182       1.07159203       0.00000000 NULL
P        1.28291101       5.29588006       5.39404172       0.00000000 NULL
P        2.60099226       1.10806728       1.75655176       0.00000000 NULL
P       -2.11152485       5.87634640       3.80501316       0.00000000 NULL
P       -2.09190728       6.93153216       0.81717563       0.00000000 NULL
P       -1.59222481       5.18756333       6.44806101       0.00000000 NULL
P        4.00872991       4.19146325       1.64811927       0.00000000 NULL
P        2.05152951       1.52778660       7.47409781       0.00000000 NULL
P        4.53538511       2.07760936       2.06707446       0.00000000 NULL
P        0.23658448       7.80927952       0.37112137       0.00000000 NULL
P        0.12830276       5.03605715       0.64406389       0.00000000 NULL
P        0.36727408       1.94742535       6.16534602       0.00000000 NULL
15
Lattice="5.960068868960254 -0.1446067391151404 -0.07239538284165219 -2.9886353451808656 8.360883209057574 -0.01955629415641816 -0.1769019326618979 -3.6966035939869175 7.885258361752835" Properties=species:S:1:pos:R:3:initial_magmoms:R:1:castep_labels:S:1 n_minim_iter=5 pbc="T T T"
P        3.08382073       3.98547413       4.93207710       0.00000000 NULL
P       -0.59432418       0.49878499       3.23439874       0.00000000 NULL
P       -1.68099930       1.42484284       6.94478218       0.00000000 NULL
P        5.27298803       0.08323264       1.02898360       0.00000000 NULL
P        1.22720687       5.27746653       5.33172879       0.00000000 NULL
P        2.59716160       1.08816498       1.72580436       0.00000000 NULL
P       -2.18643188       5.88332544       3.77269546       0.00000000 NULL
P       -2.15336377       6.95501784       0.79496020       0.00000000 NULL
P       -1.67452949       5.18475232       6.39828024       0.00000000 NULL
P        3.99639577       4.17564214       1.59955444       0.00000000 NULL
P        2.00618069       1.48920492       7.41384384       0.00000000 NULL
P        4.53826437       2.04678311       2.01863821       0.00000000 NULL
P        0.18506132       7.82508818       0.33672217       0.00000000 NULL
P        0.09169573       5.04482893       0.62196173       0.00000000 NULL
P        0.31951880       1.92827468       6.11390642       0.00000000 NULL
15
Lattice="6.01355478903353 -0.19960225107673324 -0.13499124486273484 -3.091868742562206 8.386783859583991 -0.05062878979780696 -0.2315310758758596 -3.754444679351451 7.8146727135674645" Properties=species:S:1:pos:R:3:initial_magmoms:R:1:castep_labels:S:1 n_minim_iter=6 pbc="T T T"
P        3.00923442       3.92295710       4.80171902       0.00000000 NULL
P       -0.64009049       0.47635850       3.20152454       0.00000000 NULL
P       -1.77875509       1.38228980       6.86046645       0.00000000 NULL
P        5.31220075       0.02278102       0.95104705       0.00000000 NULL
P        1.13958983       5.21960757       5.20803473       0.00000000 NULL
P        2.58465057       1.05166098       1.66860766       0.00000000 NULL
P       -2.30132840       5.86199494       3.70442043       0.00000000 NULL
P       -2.24531427       6.96150365       0.74825745       0.00000000 NULL
P       -1.80245352       5.15279783       6.29490275       0.00000000 NULL
P        3.97000420       4.13791736       1.51089266       0.00000000 NULL
P        1.92518514       1.41364035       7.29474658       0.00000000 NULL
P        4.53504033       1.98926794       1.93021830       0.00000000 NULL
P        0.10494899       7.81944247       0.27145397       0.00000000 NULL
P        0.03416316       5.03913487       0.58039215       0.00000000 NULL
P        0.23970018       1.88536912       6.00820669       0.00000000 NULL
15
Lattice="6.055074995378332 -0.21598769229114972 -0.16718642814305376 -3.1345720983675185 8.381040627494711 -0.07853443286556874 -0.2674687872342753 -3.7903056004092948 7.786203676693043" Properties=species:S:1:pos:R:3:initial_magmoms:R:1:castep_labels:S:1 n_minim_iter=7 pbc="T T T"
P        2.97497572       3.88482026       4.72547135       0.00000000 NULL
P       -0.66457391       0.45708105       3.19093506       0.00000000 NULL
P       -1.82565389       1.34177269       6.81323404       0.00000000 NULL
P        5.35114484      -0.00237739       0.90372293       0.00000000 NULL
P        1.11806628       5.17209436       5.13665022       0.00000000 NULL
P        2.58272740       1.03497065       1.63951136       0.00000000 NULL
P       -2.35145949       5.82387267       3.66227936       0.00000000 NULL
P       -2.28529652       6.94385096       0.70973903       0.00000000 NULL
P       -1.85386326       5.12007851       6.23888829       0.00000000 NULL
P        3.97188788       4.12604938       1.46432681       0.00000000 NULL
P        1.89082579       1.36451546       7.24082723       0.00000000 NULL
P        4.54844785       1.96271043       1.88463236       0.00000000 NULL
P        0.07704257       7.80278995       0.22632201       0.00000000 NULL
P        0.01362185       5.02897008       0.55688299       0.00000000 NULL
P        0.20407121       1.85835625       5.94732481       0.00000000 NULL
15
Lattice="6.023005833300266 -0.23065853609510817 -0.21191746786027846 -3.1404754259938246 8.356187436437867 -0.11229944701874912 -0.319964467600713 -3.829674012164689 7.733962558663735" Properties=species:S:1:pos:R:3:initial_magmoms:R:1:castep_labels:S:1 n_minim_iter=8 pbc="T T T"
P        2.88450513       3.83185950       4.61617816       0.00000000 NULL
P       -0.69026713       0.43158421       3.17092631       0.00000000 NULL
P       -1.86617284       1.28637950       6.73803332       0.00000000 NULL
P        5.32428709      -0.02869544       0.83744804       0.00000000 NULL
P        1.07355860       5.10358925       5.03312081       0.00000000 NULL
P        2.54380348       1.01561406       1.59796765       0.00000000 NULL
P       -2.38187390       5.76222110       3.60156457       0.00000000 NULL
P       -2.30250823       6.90561862       0.65961834       0.00000000 NULL
P       -1.89597071       5.06845060       6.15541758       0.00000000 NULL
P        3.91877119       4.10846754       1.39952708       0.00000000 NULL
P        1.81275352       1.30031107       7.15626960       0.00000000 NULL
P        4.49936097       1.92911087       1.82049431       0.00000000 NULL
P        0.04470612       7.76643952       0.16706289       0.00000000 NULL
P       -0.00976770       5.00798104       0.52640136       0.00000000 NULL
P        0.14950248       1.82252165       5.85822421       0.00000000 NULL
15
Lattice="6.068353769160653 -0.23262173390077798 -0.22199808956058667 -3.1644428180137143 8.413698925216194 -0.11922562622158914 -0.3341012879253662 -3.8659504844741894 7.778413933411509" Properties=species:S:1:pos:R:3:initial_magmoms:R:1:castep_labels:S:1 n_minim_iter=9 pbc="T T T"
P        2.89191037       3.85129482       4.62674884       0.00000000 NULL
P       -0.70082080       0.42957063       3.19087427       0.00000000 NULL
P       -1.88844964       1.28447105       6.76890285       0.00000000 NULL
P        5.36628616      -0.03155913       0.82903318       0.00000000 NULL
P        1.07831115       5.13025076       5.04858376       0.00000000 NULL
P        2.55686324       1.02160945       1.60211024       0.00000000 NULL
P       -2.40459499       5.79234754       3.61544924       0.00000000 NULL
P       -2.32298551       6.94853913       0.65397684       0.00000000 NULL
P       -1.91516499       5.09844112       6.18384347       0.00000000 NULL
P        3.94346667       4.13974019       1.39876796       0.00000000 NULL
P        1.81446277       1.29816295       7.19250542       0.00000000 NULL
P        4.53005012       1.94005203       1.82189824       0.00000000 NULL
P        0.04210675       7.81755465       0.15628309       0.00000000 NULL
P       -0.01139757       5.04218340       0.52691920       0.00000000 NULL
P        0.14145742       1.83249021       5.88072342       0.00000000 NULL
15
Lattice="6.043477671889204 -0.23148811616218173 -0.23118518616662093 -3.1512145843155506 8.397407927834577 -0.1251276508518975 -0.34696905945847095 -3.869067355743265 7.758824275662646" Properties=species:S:1:pos:R:3:initial_magmoms:R:1:castep_labels:S:1 n_minim_iter=10 pbc="T T T"
P        2.86776740       3.83843862       4.59992506       0.00000000 NULL
P       -0.70419701       0.42418210       3.18227661       0.00000000 NULL
P       -1.89136894       1.27174037       6.74604425       0.00000000 NULL
P        5.34401217      -0.03286092       0.81530754       0.00000000 NULL
P        1.06756187       5.11253050       5.02227907       0.00000000 NULL
P        2.54217477       1.01820577       1.59168692       0.00000000 NULL
P       -2.40063896       5.77280903       3.59965413       0.00000000 NULL
P       -2.31575803       6.93175939       0.64422381       0.00000000 NULL
P       -1.91613216       5.08153805       6.16014689       0.00000000 NULL
P        3.92333859       4.13347286       1.38385942       0.00000000 NULL
P        1.79301694       1.28540462       7.16682877       0.00000000 NULL
P        4.50745128       1.93398904       1.80674489       0.00000000 NULL
P        0.04017021       7.80166209       0.14457038       0.00000000 NULL
P       -0.01294717       5.03237314       0.52055075       0.00000000 NULL
P        0.12999552       1.82384004       5.85681632       0.00000000 NULL
15
Lattice="6.039457657599244 -0.23115465201703095 -0.23959984436415427 -3.1488630445450467 8.40318219585245 -0.13034743249036276 -0.35883681562370157 -3.8806786888727345 7.759243160446819" Properties=species:S:1:pos:R:3:initial_magmoms:R:1:castep_labels:S:1 n_minim_iter=11 pbc="T T T"
P        2.85490601       3.83611445       4.58684861       0.00000000 NULL
P       -0.70905519       0.42049358       3.18242910       0.00000000 NULL
P       -1.89903383       1.26373641       6.74085266       0.00000000 NULL
P        5.34066810      -0.03412861       0.80485223       0.00000000 NULL
P        1.06180317       5.10944587       5.01086190       0.00000000 NULL
P        2.53634341       1.01785380       1.58650323       0.00000000 NULL
P       -2.40394622       5.76937787       3.59419399       0.00000000 NULL
P       -2.31631041       6.93331980       0.63715313       0.00000000 NULL
P       -1.92170114       5.07954891       6.15380080       0.00000000 NULL
P        3.91715682       4.13815053       1.37462110       0.00000000 NULL
P        1.77993470       1.27728277       7.16127810       0.00000000 NULL
P        4.50118127       1.93348819       1.79796107       0.00000000 NULL
P        0.03848946       7.80607436       0.13470993       0.00000000 NULL
P       -0.01417677       5.03574359       0.51699319       0.00000000 NULL
P        0.12065745       1.82146304       5.84879910       0.00000000 NULL
15
Lattice="5.988555146609888 -0.22469651689102144 -0.33213593913278683 -3.115905725221454 8.46718348304408 -0.18866514945150675 -0.49090716499087517 -4.010140544483715 7.767105905511118" Properties=species:S:1:pos:R:3:initial_magmoms:R:1:castep_labels:S:1 n_minim_iter=12 pbc="T T T"
P        2.71434794       3.81209425       4.44516556       0.00000000 NULL
P       -0.76195820       0.37948787       3.18430826       0.00000000 NULL
P       -1.98081418       1.17521830       6.68545350       0.00000000 NULL
P        5.29788867      -0.04482830       0.69095725       0.00000000 NULL
P        0.99795735       5.07772703       4.88636127       0.00000000 NULL
P        2.47000483       1.01496212       1.53001680       0.00000000 NULL
P       -2.43569698       5.73146818       3.53541834       0.00000000 NULL
P       -2.31656935       6.95074858       0.56020258       0.00000000 NULL
P       -1.97933115       5.05746042       6.08467081       0.00000000 NULL
P        3.84667800       4.19135165       1.27260187       0.00000000 NULL
P        1.63392428       1.18741856       7.10260898       0.00000000 NULL
P        4.42824156       1.93018515       1.70185415       0.00000000 NULL
P        0.02354666       7.85656262       0.02566429       0.00000000 NULL
P       -0.02574796       5.07326919       0.47803338       0.00000000 NULL
P        0.01843711       1.79618713       5.76249547       0.00000000 NULL
15
Lattice="5.888848166595773 -0.20792848513165235 -0.4357841602352632 -3.0454895495251093 8.626793956702464 -0.21224870709690005 -0.6436152447479491 -4.155020674047929 7.769060393067545" Properties=species:S:1:pos:R:3:initial_magmoms:R:1:castep_labels:S:1 n_minim_iter=13 pbc="T T T"
P        2.56558242       3.85365213       4.31420264       0.00000000 NULL
P       -0.81710942       0.35953928       3.18345508       0.00000000 NULL
P       -2.06182734       1.13114216       6.63293230       0.00000000 NULL
P        5.20736115      -0.03446920       0.57520013       0.00000000 NULL
P        0.90577397       5.14392959       4.78282893       0.00000000 NULL
P        2.38027510       1.03510927       1.47452579       0.00000000 NULL
P       -2.45283700       5.77356714       3.50794189       0.00000000 NULL
P       -2.29061163       7.04637709       0.51763660       0.00000000 NULL
P       -2.02774849       5.12186912       6.04012155       0.00000000 NULL
P        3.74959997       4.30447808       1.17803688       0.00000000 NULL
P        1.45578399       1.13941343       7.05227232       0.00000000 NULL
P        4.32242715       1.96875713       1.60844288       0.00000000 NULL
P        0.01815038       8.00461899      -0.05975027       0.00000000 NULL
P       -0.02879798       5.17069542       0.46915606       0.00000000 NULL
P       -0.10020418       1.82637003       5.68770616       0.00000000 NULL
15
Lattice="5.8337847057500065 -0.17723410328022293 -0.4548017226352632 -2.9761006575184727 8.627645607633907 -0.2321952515460704 -0.6878974377649884 -4.1908924356555755 7.76289979275593" Properties=species:S:1:pos:R:3:initial_magmoms:R:1:castep_labels:S:1 n_minim_iter=14 pbc="T T T"
P        2.54040008       3.85732699       4.27182582       0.00000000 NULL
P       -0.82257383       0.34769977       3.17621923       0.00000000 NULL
P       -2.05953663       1.10122708       6.60441770       0.00000000 NULL
P        5.16068519      -0.00948678       0.55121187       0.00000000 NULL
P        0.90433786       5.14429497       4.74396327       0.00000000 NULL
P        2.35258156       1.04294075       1.45900634       0.00000000 NULL
P       -2.41843910       5.75143246       3.48731599       0.00000000 NULL
P       -2.24198408       7.03835402       0.49603770       0.00000000 NULL
P       -2.00061825       5.10669008       6.01143722       0.00000000 NULL
P        3.72810313       4.33242832       1.14978863       0.00000000 NULL
P        1.41608707       1.11933804       7.02982611       0.00000000 NULL
P        4.28726561       1.98817409       1.58434423       0.00000000 NULL
P        0.04950160       8.01987403      -0.09197968       0.00000000 NULL
P       -0.00710387       5.17695332       0.46296633       0.00000000 NULL
P       -0.11650974       1.82336033       5.65727225       0.00000000 NULL
15
Lattice="5.835235286853181 -0.17649082377162617 -0.46483757067492665 -2.975720253855654 8.661151509476541 -0.2352864844543203 -0.702442080642693 -4.213449964665849 7.7793310027385205" Properties=species:S:1:pos:R:3:initial_magmoms:R:1:castep_labels:S:1 n_minim_iter=15 pbc="T T T"
P        2.53310289       3.86845730       4.26872165       0.00000000 NULL
P       -0.82921822       0.34694694       3.18246699       0.00000000 NULL
P       -2.07073016       1.10007480       6.61305693       0.00000000 NULL
P        5.16185926      -0.00859703       0.54232337       0.00000000 NULL
P        0.89611848       5.16211201       4.74456320       0.00000000 NULL
P        2.34868194       1.04613038       1.45708809       0.00000000 NULL
P       -2.42559617       5.76846390       3.49227560       0.00000000 NULL
P       -2.24363078       7.06294906       0.49349916       0.00000000 NULL
P       -2.00918033       5.12347906       6.01962134       0.00000000 NULL
P        3.72625907       4.35047539       1.14290466       0.00000000 NULL
P        1.40255103       1.11634348       7.03959720       0.00000000 NULL
P        4.28598076       1.99564063       1.57897657       0.00000000 NULL
P        0.04833950       8.05150517      -0.10050044       0.00000000 NULL
P       -0.00797189       5.19622103       0.46362943       0.00000000 NULL
P       -0.12772502       1.83017568       5.66197119       0.00000000 NULL
15
Lattice="5.822340151103128 -0.1736808020226738 -0.47310836576085596 -2.9657005700923436 8.675444675979348 -0.23906000807996877 -0.7154114425583233 -4.227898645849801 7.781085249806257" Properties=species:S:1:pos:R:3:initial_magmoms:R:1:castep_labels:S:1 n_minim_iter=16 pbc="T T T"
P        2.52123943       3.87213236       4.25770061       0.00000000 NULL
P       -0.83328326       0.34510354       3.18222534       0.00000000 NULL
P       -2.07565146       1.09556314       6.60903742       0.00000000 NULL
P        5.15029338      -0.00635093       0.53340256       0.00000000 NULL
P        0.88792604       5.16860894       4.73576787       0.00000000 NULL
P        2.33988759       1.04755062       1.45249977       0.00000000 NULL
P       -2.42474601       5.77232541       3.48966957       0.00000000 NULL
P       -2.23772998       7.07202393       0.48918306       0.00000000 NULL
P       -2.01088822       5.12808599       6.01548665       0.00000000 NULL
P        3.71676776       4.36018408       1.13385682       0.00000000 NULL
P        1.38681702       1.11106496       7.03577669       0.00000000 NULL
P        4.27486274       1.99971078       1.57100170       0.00000000 NULL
P        0.04939428       8.06624293      -0.10933015       0.00000000 NULL
P       -0.00745678       5.20448635       0.46253027       0.00000000 NULL
P       -0.13734339       1.83220195       5.65600821       0.00000000 NULL
15
Lattice="5.777603575889717 -0.1608249349317923 -0.503065370817293 -2.9265181053680607 8.731612638187231 -0.25431107021698074 -0.764117982182819 -4.28434773040961 7.791052692583984" Properties=species:S:1:pos:R:3:initial_magmoms:R:1:castep_labels:S:1 n_minim_iter=17 pbc="T T T"
P        2.48131091       3.88846011       4.21850017       0.00000000 NULL
P       -0.84815653       0.33813146       3.18247850       0.00000000 NULL
P       -2.09321700       1.07834385       6.59624625       0.00000000 NULL
P        5.11060386       0.00426567       0.50122787       0.00000000 NULL
P        0.86126508       5.19559837       4.70480783       0.00000000 NULL
P        2.30922205       1.05404390       1.43650037       0.00000000 NULL
P       -2.41998148       5.78821629       3.48080258       0.00000000 NULL
P       -2.21384263       7.10824701       0.47255309       0.00000000 NULL
P       -2.01485414       5.14683979       6.00198526       0.00000000 NULL
P        3.68582091       4.39975799       1.10093201       0.00000000 NULL
P        1.33109438       1.09193992       7.02480117       0.00000000 NULL
P        4.23746617       2.01757079       1.54253909       0.00000000 NULL
P        0.05671861       8.12519798      -0.14292524       0.00000000 NULL
P       -0.00342495       5.23742981       0.45864767       0.00000000 NULL
P       -0.17110800       1.84072273       5.63583692       0.00000000 NULL
15
Lattice="5.734211822651804 -0.14127887917704138 -0.5299326587308901 -2.878443263191673 8.785243860036513 -0.2719154163578388 -0.8127277726845239 -4.3421367359053695 7.7999412779577755" Properties=species:S:1:pos:R:3:initial_magmoms:R:1:castep_labels:S:1 n_minim_iter=18 pbc="T T T"
P        2.44999166       3.90802943       4.17939726       0.00000000 NULL
P       -0.86124170       0.33095109       3.18150721       0.00000000 NULL
P       -2.10599976       1.05938462       6.58146051       0.00000000 NULL
P        5.07321224       0.02102222       0.47165163       0.00000000 NULL
P        0.84403173       5.22422363       4.67316823       0.00000000 NULL
P        2.28157610       1.06257953       1.42170187       0.00000000 NULL
P       -2.40773234       5.80189458       3.47005601       0.00000000 NULL
P       -2.18161112       7.14296531       0.45424251       0.00000000 NULL
P       -2.00987323       5.16393007       5.98629970       0.00000000 NULL
P        3.66217116       4.44312360       1.06886257       0.00000000 NULL
P        1.28174587       1.07399997       7.01332508       0.00000000 NULL
P        4.20533238       2.04027523       1.51559053       0.00000000 NULL
P        0.07330211       8.18561127      -0.17770928       0.00000000 NULL
P        0.00634438       5.27004513       0.45459686       0.00000000 NULL
P       -0.19901783       1.84947162       5.61447861       0.00000000 NULL
15
Lattice="5.687438262490542 -0.12313695735511002 -0.5576528264907475 -2.830787514374694 8.842851176835472 -0.2896389756748568 -0.8615574084918184 -4.401855907323957 7.804168381877493" Properties=species:S:1:pos:R:3:initial_magmoms:R:1:castep_labels:S:1 n_minim_iter=19 pbc="T T T"
P        2.41606360       3.92829644       4.13636575       0.00000000 NULL
P       -0.87512609       0.32462582       3.17827973       0.00000000 NULL
P       -2.11950364       1.04154175       6.56287643       0.00000000 NULL
P        5.03260513       0.03677857       0.44060454       0.00000000 NULL
P        0.82367000       5.25457621       4.63778997       0.00000000 NULL
P        2.25231878       1.07035006       1.40576744       0.00000000 NULL
P       -2.39702454       5.81806990       3.45736782       0.00000000 NULL
P       -2.14920517       7.18102012       0.43537945       0.00000000 NULL
P       -2.00701450       5.18303763       5.96654608       0.00000000 NULL
P        3.63512961       4.48634816       1.03436913       0.00000000 NULL
P        1.22976119       1.05548966       6.99658452       0.00000000 NULL
P        4.16978393       2.06220426       1.48622746       0.00000000 NULL
P        0.08804104       8.24949673      -0.21368349       0.00000000 NULL
P        0.01404676       5.30380414       0.44981378       0.00000000 NULL
P       -0.22861447       1.85865955       5.58923391       0.00000000 NULL
15
Lattice="5.650834338262595 -0.10254405449847258 -0.5797934380472654 -2.784392335558514 8.900799490866644 -0.3068940905338758 -0.9043996813128045 -4.459275340378983 7.8107443023089" Properties=species:S:1:pos:R:3:initial_magmoms:R:1:castep_labels:S:1 n_minim_iter=20 pbc="T T T"
P        2.39438238       3.95272097       4.10054274       0.00000000 NULL
P       -0.88668590       0.31979989       3.17621663       0.00000000 NULL
P       -2.12899139       1.02642592       6.54793269       0.00000000 NULL
P        5.00198634       0.05528761       0.41529275       0.00000000 NULL
P        0.81337359       5.28845143       4.60872751       0.00000000 NULL
P        2.23031450       1.07971339       1.39379550       0.00000000 NULL
P       -2.38378362       5.83668751       3.44687768       0.00000000 NULL
P       -2.11592746       7.22056990       0.41766672       0.00000000 NULL
P       -1.99894952       5.20473329       5.95069191       0.00000000 NULL
P        3.61886581       4.53173297       1.00562183       0.00000000 NULL
P        1.18997766       1.04153407       6.98528582       0.00000000 NULL
P        4.14507753       2.08712965       1.46247503       0.00000000 NULL
P        0.10752661       8.31502475      -0.24613839       0.00000000 NULL
P        0.02490187       5.33850750       0.44636926       0.00000000 NULL
P       -0.25034167       1.86969528       5.56881331       0.00000000 NULL
15
Lattice="5.610930418318364 -0.0871206686730359 -0.5958906436047771 -2.743812678775065 8.932807219893656 -0.31907667217332053 -0.9354599755748595 -4.4963174815778535 7.802314184475931" Properties=species:S:1:pos:R:3:initial_magmoms:R:1:castep_labels:S:1 n_minim_iter=21 pbc="T T T"
P        2.37248138       3.96630056       4.06622971       0.00000000 NULL
P       -0.89423670       0.31657587       3.16906281       0.00000000 NULL
P       -2.13251107       1.01452418       6.52583355       0.00000000 NULL
P        4.96785480       0.06910946       0.39507446       0.00000000 NULL
P        0.80300966       5.30720191       4.57900416       0.00000000 NULL
P        2.20903471       1.08495242       1.38250840       0.00000000 NULL
P       -2.36979055       5.84303547       3.43362699       0.00000000 NULL
P       -2.08624764       7.24084827       0.40366717       0.00000000 NULL
P       -1.99002893       5.21441351       5.92875511       0.00000000 NULL
P        3.59836733       4.55946171       0.98181815       0.00000000 NULL
P        1.15652564       1.03003123       6.96464180       0.00000000 NULL
P        4.11700957       2.10255317       1.44165859       0.00000000 NULL
P        0.12164911       8.35358114      -0.27027698       0.00000000 NULL
P        0.03226592       5.35727362       0.44305099       0.00000000 NULL
P       -0.26707705       1.87579063       5.54414180       0.00000000 NULL
15
Lattice="5.60040685006395 -0.07730148086567788 -0.6049354459554782 -2.7249261099189503 8.967945194908701 -0.32623536365388195 -0.9539657634171532 -4.5252536415936415 7.8116350185420265" Properties=species:S:1:pos:R:3:initial_magmoms:R:1:castep_labels:S:1 n_minim_iter=22 pbc="T T T"
P        2.36751241       3.98267862       4.05508015       0.00000000 NULL
P       -0.89985427       0.31587762       3.17100996       0.00000000 NULL
P       -2.13736572       1.01048144       6.52501150       0.00000000 NULL
P        4.95984409       0.07852909       0.38511260       0.00000000 NULL
P        0.80126215       5.32953398       4.57161784       0.00000000 NULL
P        2.20229344       1.09053511       1.37974373       0.00000000 NULL
P       -2.36512341       5.85808409       3.43300809       0.00000000 NULL
P       -2.07201012       7.26614213       0.39670581       0.00000000 NULL
P       -1.98654938       5.23096117       5.92779200       0.00000000 NULL
P        3.59591194       4.58489926       0.97146601       0.00000000 NULL
P        1.14233119       1.02664024       6.96663407       0.00000000 NULL
P        4.11128123       2.11678178       1.43358220       0.00000000 NULL
P        0.13158898       8.39186170      -0.28379710       0.00000000 NULL
P        0.03774454       5.37825055       0.44313404       0.00000000 NULL
P       -0.27527626       1.88427834       5.54049411       0.00000000 NULL
15
Lattice="5.582080756213871 -0.07001224245578352 -0.6111496357776389 -2.705996588596343 8.980567324973013 -0.3314827671172849 -0.9667106682852987 -4.540517016003008 7.806722636881789" Properties=species:S:1:pos:R:3:initial_magmoms:R:1:castep_labels:S:1 n_minim_iter=23 pbc="T T T"
P        2.35881501       3.98866787       4.03995397       0.00000000 NULL
P       -0.90278210       0.31488674       3.16736750       0.00000000 NULL
P       -2.13770354       1.00560885       6.51439292       0.00000000 NULL
P        4.94438649       0.08519462       0.37678005       0.00000000 NULL
P        0.79783405       5.33753743       4.55849413       0.00000000 NULL
P        2.19315332       1.09273565       1.37528559       0.00000000 NULL
P       -2.35787250       5.86000870       3.42698731       0.00000000 NULL
P       -2.05773524       7.27387551       0.39047673       0.00000000 NULL
P       -1.98123828       5.23476191       5.91753695       0.00000000 NULL
P        3.58704969       4.59666100       0.96158712       0.00000000 NULL
P        1.12876001       1.02212586       6.95699071       0.00000000 NULL
P        4.09894063       2.12361601       1.42486248       0.00000000 NULL
P        0.13852551       8.40771201      -0.29403878       0.00000000 NULL
P        0.04137468       5.38563944       0.44200582       0.00000000 NULL
P       -0.28162279       1.88719313       5.52915577       0.00000000 NULL
15
Lattice="5.5650935180783785 -0.06052713186601468 -0.6191585027486199 -2.684567423249741 9.005602853340124 -0.338132342512885 -0.9833779952977088 -4.563955298224907 7.80747800715668" Properties=species:S:1:pos:R:3:initial_magmoms:R:1:castep_labels:S:1 n_minim_iter=24 pbc="T T T"
P        2.35125192       4.00066650       4.02485712       0.00000000 NULL
P       -0.90728388       0.31422775       3.16575781       0.00000000 NULL
P       -2.13988916       1.00094499       6.50683401       0.00000000 NULL
P        4.93057216       0.09418799       0.36681684       0.00000000 NULL
P        0.79517194       5.35374841       4.54655057       0.00000000 NULL
P        2.18419696       1.09678193       1.37137292       0.00000000 NULL
P       -2.35076000       5.86858290       3.42285109       0.00000000 NULL
P       -2.04136824       7.29101187       0.38316291       0.00000000 NULL
P       -1.97582677       5.24546055       5.91027738       0.00000000 NULL
P        3.58024981       4.61646800       0.95052376       0.00000000 NULL
P        1.11370058       1.01802590       6.95147932       0.00000000 NULL
P        4.08834227       2.13494111       1.41552378       0.00000000 NULL
P        0.14791616       8.43634883      -0.30687665       0.00000000 NULL
P        0.04636378       5.40044785       0.44151020       0.00000000 NULL
P       -0.28928537       1.89349526       5.51994670       0.00000000 NULL
15
Lattice="5.486309770743355 -0.021197591687585223 -0.6505470862647506 -2.5918150945113765 9.095743540952629 -0.36398193259517364 -1.0497098894381243 -4.652599994738336 7.79670208880422" Properties=species:S:1:pos:R:3:initial_magmoms:R:1:castep_labels:S:1 n_minim_iter=25 pbc="T T T"
P        2.31746633       4.04557857       3.95644942       0.00000000 NULL
P       -0.92428589       0.31237764       3.15357045       0.00000000 NULL
P       -2.14486785       0.98207937       6.46491374       0.00000000 NULL
P        4.86597711       0.13170309       0.32548393       0.00000000 NULL
P        0.78393089       5.41391908       4.49059880       0.00000000 NULL
P        2.14448379       1.11160545       1.35386012       0.00000000 NULL
P       -2.31762620       5.89553769       3.40109248       0.00000000 NULL
P       -1.97000284       7.35091524       0.35295775       0.00000000 NULL
P       -1.95020802       5.28316821       5.87083565       0.00000000 NULL
P        3.54692484       4.69150231       0.90417121       0.00000000 NULL
P        1.05090390       1.00136008       6.91715826       0.00000000 NULL
P        4.03845948       2.17860037       1.37511872       0.00000000 NULL
P        0.18691182       8.54224267      -0.35814216       0.00000000 NULL
P        0.06661573       5.45344298       0.43942284       0.00000000 NULL
P       -0.31956966       1.91816933       5.47324609       0.00000000 NULL
15
Lattice="5.376456551368174 0.06302515106548655 -0.7137963168410809 -2.4206718118214177 9.334510752449695 -0.3975008614162437 -1.1878468976137422 -4.839259553933576 7.807891998986662" Properties=species:S:1:pos:R:3:initial_magmoms:R:1:castep_labels:S:1 n_minim_iter=26 pbc="T T T"
P        2.28187193       4.17803481       3.84961747       0.00000000 NULL
P       -0.96644651       0.32364790       3.14837883       0.00000000 NULL
P       -2.16929298       0.97262978       6.41975730       0.00000000 NULL
P        4.78231164       0.21851325       0.24457161       0.00000000 NULL
P        0.77983193       5.59022824       4.41914361       0.00000000 NULL
P        2.08760160       1.15160576       1.33667488       0.00000000 NULL
P       -2.26679748       5.99550642       3.39397176       0.00000000 NULL
P       -1.83227209       7.51788913       0.30849619       0.00000000 NULL
P       -1.90961434       5.41294090       5.83688812       0.00000000 NULL
P        3.51795532       4.87686590       0.82936563       0.00000000 NULL
P        0.94492303       1.00003586       6.88997678       0.00000000 NULL
P        3.98006709       2.29042038       1.30666020       0.00000000 NULL
P        0.27566717       8.80889172      -0.44307503       0.00000000 NULL
P        0.11183199       5.59664536       0.45193737       0.00000000 NULL
P       -0.37579574       2.00182905       5.41656114       0.00000000 NULL
15
Lattice="5.276944541479211 0.06431715910390291 -0.7065321610667231 -2.3723694205424066 9.23375830147582 -0.4142493367915804 -1.1757198790127426 -4.8083708667272935 7.7048089726058535" Properties=species:S:1:pos:R:3:initial_magmoms:R:1:castep_labels:S:1 n_minim_iter=27 pbc="T T T"
P        2.23981547       4.12345843       3.77519987       0.00000000 NULL
P       -0.95626530       0.31707429       3.10000945       0.00000000 NULL
P       -2.13560158       0.94841451       6.31907319       0.00000000 NULL
P        4.69530007       0.21683266       0.23538472       0.00000000 NULL
P        0.76505185       5.51887182       4.33783022       0.00000000 NULL
P        2.04927930       1.13138156       1.31660320       0.00000000 NULL
P       -2.23130078       5.91435491       3.33365491       0.00000000 NULL
P       -1.79336557       7.42990152       0.28256111       0.00000000 NULL
P       -1.87940346       5.33868406       5.73805885       0.00000000 NULL
P        3.45337149       4.81974650       0.80308527       0.00000000 NULL
P        0.92040691       0.96963393       6.78693920       0.00000000 NULL
P        3.90751081       2.25679775       1.27901242       0.00000000 NULL
P        0.27198280       8.71442049      -0.46244638       0.00000000 NULL
P        0.10841515       5.53264468       0.43709314       0.00000000 NULL
P       -0.37768667       1.97097186       5.33033906       0.00000000 NULL
15
Lattice="5.325743276947466 0.07316319713679216 -0.7120204921988409 -2.3825662495005773 9.31569956665919 -0.42144723343950097 -1.1902951673222288 -4.856074535203787 7.771160084976357" Properties=species:S:1:pos:R:3:initial_magmoms:R:1:castep_labels:S:1 n_minim_iter=28 pbc="T T T"
P        2.26860135       4.16240902       3.80329168       0.00000000 NULL
P       -0.96553811       0.31859176       3.12680266       0.00000000 NULL
P       -2.15277209       0.95380840       6.36959394       0.00000000 NULL
P        4.74116233       0.22709728       0.23579362       0.00000000 NULL
P        0.78110850       5.57253289       4.37226343       0.00000000 NULL
P        2.06944493       1.14340856       1.32994910       0.00000000 NULL
P       -2.24503909       5.96407233       3.36082294       0.00000000 NULL
P       -1.79894315       7.49448619       0.28097308       0.00000000 NULL
P       -1.88798330       5.38604761       5.78439461       0.00000000 NULL
P        3.49191335       4.86790254       0.80869909       0.00000000 NULL
P        0.93250646       0.97770384       6.84468517       0.00000000 NULL
P        3.94892489       2.28412510       1.28849279       0.00000000 NULL
P        0.28481951       8.79425107      -0.47071916       0.00000000 NULL
P        0.11634536       5.58308024       0.44170949       0.00000000 NULL
P       -0.37767110       1.99135370       5.37282653       0.00000000 NULL
