12
Lattice="2.546653241046965 0.0 0.0 0.0 10.058305030345446 0.0 0.0 0.0 9.705745549496918" Properties=species:S:1:pos:R:3:initial_magmoms:R:1:castep_labels:S:1:forces:R:3 n_minim_iter=1 energy=-64.129149004505 stress="-0.0018144278529029394 -0.0 0.0 -0.0 -0.0024067143175551327 -0.0 0.0 -0.0 -0.003471422142298328" free_energy=-64.129149004505 pbc="T T T"
P        1.25690924       8.32404914       7.20014465       0.00000000 NULL       0.05050500       0.07888900      -0.06061200
P        2.56307062       1.73425589       2.34727188       0.00000000 NULL      -0.05050500      -0.07888900      -0.06061200
P        1.28974400       3.29489663       7.35847367       0.00000000 NULL      -0.05050500       0.07888900       0.06061200
P       -0.01641738       6.76340840       2.50560089       0.00000000 NULL       0.05050500      -0.07888900       0.06061200
P        1.27919949       1.29960757       8.37396416       0.00000000 NULL      -0.00560500       0.05534800       0.05592100
P       -0.00587287       8.75869746       3.52109139       0.00000000 NULL       0.00560400      -0.05534800       0.05592000
P        1.26745376       6.32876008       6.18465416       0.00000000 NULL       0.00560400       0.05534800      -0.05592000
P        2.55252611       3.72954495       1.33178139       0.00000000 NULL      -0.00560400      -0.05534800      -0.05592100
P        2.55484975       8.62233307       1.29606624       0.00000000 NULL      -0.04998300       0.09642000      -0.11732600
P        1.26513011       1.43597196       6.14893902       0.00000000 NULL       0.04998300      -0.09642000      -0.11732500
P       -0.00819651       3.59318056       3.55680653       0.00000000 NULL       0.04998300       0.09642000       0.11732500
P        1.28152313       6.46512447       8.40967931       0.00000000 NULL      -0.04998300      -0.09642000       0.11732600
12
Lattice="2.5499017302287204 0.0 0.0 0.0 10.07532707139112 0.0 0.0 0.0 9.72944624613712" Properties=species:S:1:pos:R:3:initial_magmoms:R:1:castep_labels:S:1:forces:R:3 n_minim_iter=2 energy=-64.131215977581 stress="0.0011533839150662853 -0.0 -0.0 -0.0 0.00033849397521248145 0.0 -0.0 0.0 -0.00028016467420080457" free_energy=-64.131215977581 pbc="T T T"
P        1.25865545       8.33835956       7.21755516       0.00000000 NULL       0.04985600       0.01264200      -0.05104600
P        2.56619714       1.73696751       2.35283203       0.00000000 NULL      -0.04985700      -0.01264100      -0.05104600
P        1.29124628       3.30069602       7.37661421       0.00000000 NULL      -0.04985600       0.01264200       0.05104600
P       -0.01629541       6.77463105       2.51189109       0.00000000 NULL       0.04985700      -0.01264200       0.05104600
P        1.28081536       1.30196362       8.39457116       0.00000000 NULL      -0.00555100       0.08831000      -0.00588900
P       -0.00586450       8.77336345       3.52984804       0.00000000 NULL       0.00555100      -0.08831000      -0.00588900
P        1.26908637       6.33962716       6.19959820       0.00000000 NULL       0.00555100       0.08831000       0.00588900
P        2.55576623       3.73569992       1.33487508       0.00000000 NULL      -0.00555100      -0.08831000       0.00588900
P        2.55796726       8.63719791       1.29889877       0.00000000 NULL      -0.04941200       0.06610500      -0.04689900
P        1.26688533       1.43812916       6.16362189       0.00000000 NULL       0.04941200      -0.06610500      -0.04689900
P       -0.00806553       3.59953437       3.56582436       0.00000000 NULL       0.04941200       0.06610500       0.04689900
P        1.28301640       6.47579270       8.43054748       0.00000000 NULL      -0.04941200      -0.06610500       0.04689900
12
Lattice="2.545807148365776 0.0 0.0 0.0 10.075030625563924 0.0 0.0 0.0 9.742233635980867" Properties=species:S:1:pos:R:3:initial_magmoms:R:1:castep_labels:S:1:forces:R:3 n_minim_iter=3 energy=-64.131846830366 stress="-0.0010910063776326734 -0.0 0.0 -0.0 0.0004828329523196466 -0.0 0.0 -0.0 0.0006717641058961946" free_energy=-64.131846830366 pbc="T T T"
P        1.25703452       8.33827875       7.22662085       0.00000000 NULL       0.04852700       0.00725000      -0.04279100
P        2.56167620       1.73675187       2.35550403       0.00000000 NULL      -0.04852600      -0.00725000      -0.04279100
P        1.28877262       3.30076344       7.38672961       0.00000000 NULL      -0.04852700       0.00725000       0.04279100
P       -0.01586905       6.77426719       2.51561279       0.00000000 NULL       0.04852600      -0.00725000       0.04279100
P        1.27871412       1.30260342       8.40561557       0.00000000 NULL      -0.00551400       0.08488100      -0.02069700
P       -0.00581054       8.77242720       3.53449875       0.00000000 NULL       0.00551400      -0.08488100      -0.02069700
P        1.26709303       6.34011874       6.20773488       0.00000000 NULL       0.00551400       0.08488200       0.02069700
P        2.55161769       3.73491189       1.33661806       0.00000000 NULL      -0.00551400      -0.08488200       0.02069700
P        2.55346317       8.63750366       1.30016101       0.00000000 NULL      -0.04813200       0.05822600      -0.02410400
P        1.26524756       1.43752697       6.17127783       0.00000000 NULL       0.04813200      -0.05822600      -0.02410400
P       -0.00765602       3.59998834       3.57095581       0.00000000 NULL       0.04813200       0.05822600       0.02410400
P        1.28055959       6.47504228       8.44207262       0.00000000 NULL      -0.04813200      -0.05822600       0.02410400
12
Lattice="2.548711643471622 0.0 0.0 0.0 10.041197929172814 0.0 0.0 0.0 9.751021400298038" Properties=species:S:1:pos:R:3:initial_magmoms:R:1:castep_labels:S:1:forces:R:3 n_minim_iter=4 energy=-64.134542899425 stress="0.00032238116624248885 -0.0 -0.0 -0.0 -0.0016808701552774939 0.0 -0.0 0.0 0.0011620548713319994" free_energy=-64.134542899425 pbc="T T T"
P        1.26149159       8.31117517       7.23018297       0.00000000 NULL       0.03630300       0.05001300       0.00375300
P        2.56157587       1.73002276       2.35467226       0.00000000 NULL      -0.03630300      -0.05001300       0.00375300
P        1.28722005       3.29057620       7.39634914       0.00000000 NULL      -0.03630300       0.05001300      -0.00375300
P       -0.01286423       6.75062173       2.52083844       0.00000000 NULL       0.03630300      -0.05001300      -0.00375300
P        1.27983338       1.30340491       8.41267262       0.00000000 NULL      -0.00479300       0.02077100      -0.01497100
P       -0.00547756       8.73779302       3.53716192       0.00000000 NULL       0.00479400      -0.02077100      -0.01497100
P        1.26887826       6.32400388       6.21385948       0.00000000 NULL       0.00479300       0.02077100       0.01497100
P        2.55418920       3.71719405       1.33834878       0.00000000 NULL      -0.00479400      -0.02077100       0.01497100
P        2.55337965       8.61245103       1.29879121       0.00000000 NULL      -0.03559200       0.03506600       0.01460400
P        1.26968782       1.42874690       6.17430191       0.00000000 NULL       0.03559100      -0.03506600       0.01460400
P       -0.00466800       3.59185206       3.57671949       0.00000000 NULL       0.03559200       0.03506600      -0.01460400
P        1.27902383       6.44934587       8.45223019       0.00000000 NULL      -0.03559100      -0.03506600      -0.01460400
12
Lattice="2.5477396512226287 0.0 0.0 0.0 10.073087867911108 0.0 0.0 0.0 9.719458856193823" Properties=species:S:1:pos:R:3:initial_magmoms:R:1:castep_labels:S:1:forces:R:3 n_minim_iter=5 energy=-64.136482753586 stress="-0.00011654273505292954 0.0 -0.0 0.0 0.00016982285025256608 0.0 -0.0 0.0 -0.0001734309844647311" free_energy=-64.136482753586 pbc="T T T"
P        1.26392023       8.33898374       7.20448578       0.00000000 NULL       0.02475500      -0.00027600       0.04214800
P        2.55768924       1.73410413       2.34475635       0.00000000 NULL      -0.02475500       0.00027600       0.04214800
P        1.28381942       3.30243980       7.37470251       0.00000000 NULL      -0.02475500      -0.00027600      -0.04214800
P       -0.00994959       6.77064806       2.51497308       0.00000000 NULL       0.02475500       0.00027600      -0.04214800
P        1.27900848       1.31196445       8.38482097       0.00000000 NULL      -0.00392900       0.01284800       0.02758600
P       -0.00513866       8.76112342       3.52509154       0.00000000 NULL       0.00393000      -0.01284800       0.02758600
P        1.26873117       6.34850839       6.19436731       0.00000000 NULL       0.00392900       0.01284800      -0.02758600
P        2.55287831       3.72457948       1.33463789       0.00000000 NULL      -0.00393000      -0.01284800      -0.02758600
P        2.54952689       8.64344777       1.29276847       0.00000000 NULL      -0.02376000      -0.01954600       0.00602200
P        1.27208259       1.42964010       6.15249789       0.00000000 NULL       0.02375900       0.01954600       0.00602200
P       -0.00178723       3.60690384       3.56696096       0.00000000 NULL       0.02376000      -0.01954600      -0.00602200
P        1.27565706       6.46618403       8.42669039       0.00000000 NULL      -0.02375900       0.01954600      -0.00602200
12
Lattice="2.5476400439779034 0.0 0.0 0.0 10.082130256552194 0.0 0.0 0.0 9.70596638315611" Properties=species:S:1:pos:R:3:initial_magmoms:R:1:castep_labels:S:1:forces:R:3 n_minim_iter=6 energy=-64.138817340612 stress="-9.90357448502698e-05 -0.0 -0.0 -0.0 9.386133776817794e-05 0.0 -0.0 0.0 -6.502103783000702e-05" free_energy=-64.138817340612 pbc="T T T"
P        1.27426793       8.34889500       7.20374015       0.00000000 NULL      -0.01635200       0.00755900       0.01625200
P        2.54719214       1.73323525       2.35075696       0.00000000 NULL       0.01635200      -0.00755800       0.01625200
P        1.27337211       3.30782988       7.35520942       0.00000000 NULL       0.01635200       0.00755900      -0.01625200
P        0.00044791       6.77430038       2.50222623       0.00000000 NULL      -0.01635200      -0.00755900      -0.01625200
P        1.27745356       1.32148670       8.37942048       0.00000000 NULL      -0.00051500       0.02483600      -0.00042000
P       -0.00363354       8.76064355       3.52643729       0.00000000 NULL       0.00051500      -0.02483600      -0.00042000
P        1.27018648       6.36255183       6.17952910       0.00000000 NULL       0.00051500       0.02483600       0.00042000
P        2.55127359       3.71957843       1.32654590       0.00000000 NULL      -0.00051500      -0.02483600       0.00042000
P        2.53934583       8.65028414       1.29144352       0.00000000 NULL       0.01888900       0.00723500       0.00940700
P        1.28211423       1.43184611       6.14442671       0.00000000 NULL      -0.01888900      -0.00723500       0.00940700
P        0.00829421       3.60921901       3.56153967       0.00000000 NULL      -0.01888900       0.00723500      -0.00940700
P        1.26552581       6.47291124       8.41452286       0.00000000 NULL       0.01888900      -0.00723500      -0.00940700
12
Lattice="2.548815012478043 0.0 0.0 0.0 10.1051127800038 0.0 0.0 0.0 9.751396911017638" Properties=species:S:1:pos:R:3:initial_magmoms:R:1:castep_labels:S:1:forces:R:3 n_minim_iter=7 energy=-64.145334809427 stress="0.0008153844398648697 -0.0 -0.0 -0.0 0.00025454137038215306 -0.0 -0.0 -0.0 0.0015387151258859201" free_energy=-64.145334809427 pbc="T T T"
P        1.27330539       8.39592430       7.29767137       0.00000000 NULL       0.00511000      -0.00138200       0.00318000
P        2.54991713       1.70918848       2.42197292       0.00000000 NULL      -0.00511000       0.00138200       0.00318000
P        1.27550962       3.34336791       7.32942400       0.00000000 NULL      -0.00511000      -0.00138300      -0.00318000
P       -0.00110212       6.76174487       2.45372554       0.00000000 NULL       0.00511000       0.00138300      -0.00318000
P        1.27234522       1.40069990       8.43395345       0.00000000 NULL       0.00774900      -0.00868200      -0.00702400
P        0.00206229       8.70441288       3.55825500       0.00000000 NULL      -0.00774900       0.00868200      -0.00702400
P        1.27646979       6.45325629       6.19314192       0.00000000 NULL      -0.00774900      -0.00868200       0.00702400
P        2.54675273       3.65185649       1.31744346       0.00000000 NULL       0.00774900       0.00868200       0.00702400
P        2.54826489       8.68583790       1.31980065       0.00000000 NULL       0.00262700       0.02358900      -0.00128300
P        1.27495763       1.41927488       6.19549911       0.00000000 NULL      -0.00262700      -0.02358900      -0.00128300
P        0.00055012       3.63328151       3.55589781       0.00000000 NULL      -0.00262700       0.02358900       0.00128300
P        1.27385738       6.47183127       8.43159626       0.00000000 NULL       0.00262700      -0.02358900       0.00128300
12
Lattice="2.548523485849811 0.0 0.0 0.0 10.094928874933847 0.0 0.0 0.0 9.722604833094746" Properties=species:S:1:pos:R:3:initial_magmoms:R:1:castep_labels:S:1:forces:R:3 n_minim_iter=8 energy=-64.14611357202 stress="0.0007664661015601802 0.0 0.0 0.0 0.0003215863405461136 -0.0 0.0 -0.0 0.001389129857652388" free_energy=-64.14611357202 pbc="T T T"
P        1.27286150       8.39016429       7.28185404       0.00000000 NULL       0.00741800      -0.02742400      -0.00041000
P        2.54992373       1.70476459       2.42055162       0.00000000 NULL      -0.00741700       0.02742400      -0.00041000
P        1.27566199       3.34269985       7.30205321       0.00000000 NULL      -0.00741800      -0.02742400       0.00041000
P       -0.00140024       6.75222903       2.44075080       0.00000000 NULL       0.00741700       0.02742400       0.00041000
P        1.27319388       1.40193129       8.41423254       0.00000000 NULL       0.00279500       0.00639600      -0.03316900
P        0.00106787       8.69299759       3.55293012       0.00000000 NULL      -0.00279400      -0.00639600      -0.03316900
P        1.27532961       6.44939573       6.16967471       0.00000000 NULL      -0.00279500       0.00639600       0.03316900
P        2.54745562       3.64553315       1.30837229       0.00000000 NULL       0.00279400      -0.00639600       0.03316900
P        2.55010571       8.68178391       1.31264253       0.00000000 NULL      -0.00483200       0.00741800       0.02318100
P        1.27267952       1.41314497       6.17394494       0.00000000 NULL       0.00483200      -0.00741800       0.02318200
P       -0.00158222       3.63431947       3.54865989       0.00000000 NULL       0.00483200       0.00741800      -0.02318200
P        1.27584396       6.46060941       8.40996230       0.00000000 NULL      -0.00483200      -0.00741800      -0.02318100
12
Lattice="2.5477387289785094 0.0 0.0 0.0 10.127902452678363 0.0 0.0 0.0 9.69759263974481" Properties=species:S:1:pos:R:3:initial_magmoms:R:1:castep_labels:S:1:forces:R:3 n_minim_iter=9 energy=-64.147018010755 stress="0.0002390206503316142 -0.0 -0.0 -0.0 0.00021064668916534666 -0.0 -0.0 -0.0 0.00031774840173661" free_energy=-64.147018010755 pbc="T T T"
P        1.27400584       8.40527548       7.26505065       0.00000000 NULL       0.00057900       0.00462600       0.00706300
P        2.54760225       1.72262698       2.41625433       0.00000000 NULL      -0.00057900      -0.00462600       0.00706300
P        1.27373289       3.34132425       7.28133831       0.00000000 NULL      -0.00057900       0.00462700      -0.00706300
P        0.00013648       6.78657820       2.43254199       0.00000000 NULL       0.00057900      -0.00462700      -0.00706300
P        1.27564521       1.40265311       8.39183966       0.00000000 NULL      -0.00816100      -0.01439900      -0.01237200
P       -0.00177584       8.72524934       3.54304334       0.00000000 NULL       0.00816100       0.01439900      -0.01237200
P        1.27209352       6.46660434       6.15454930       0.00000000 NULL       0.00816100      -0.01440000       0.01237200
P        2.54951457       3.66129812       1.30575298       0.00000000 NULL      -0.00816100       0.01440000       0.01237200
P        2.55028283       8.71617297       1.30439435       0.00000000 NULL      -0.00899900       0.01201700       0.01557800
P        1.27132527       1.41172948       6.15319067       0.00000000 NULL       0.00899800      -0.01201700       0.01557800
P       -0.00254410       3.65222175       3.54440197       0.00000000 NULL       0.00899900       0.01201800      -0.01557800
P        1.27641346       6.47568071       8.39319829       0.00000000 NULL      -0.00899800      -0.01201800      -0.01557800
12
Lattice="2.5472360076967275 0.0 0.0 0.0 10.118167926838336 0.0 0.0 0.0 9.700882908090103" Properties=species:S:1:pos:R:3:initial_magmoms:R:1:castep_labels:S:1:forces:R:3 n_minim_iter=10 energy=-64.147683470749 stress="-0.00026645402906701795 0.0 0.0 0.0 -9.587065560997331e-05 -0.0 0.0 -0.0 -0.0005332680230487167" free_energy=-64.147683470749 pbc="T T T"
P        1.27469466       8.39077584       7.26880901       0.00000000 NULL      -0.00422600      -0.00309600       0.00550200
P        2.54615935       1.72739209       2.41836756       0.00000000 NULL       0.00422600       0.00309600       0.00550200
P        1.27254135       3.33169187       7.28251535       0.00000000 NULL       0.00422600      -0.00309600      -0.00550200
P        0.00107666       6.78647605       2.43207390       0.00000000 NULL      -0.00422600       0.00309700      -0.00550200
P        1.27431128       1.39092672       8.39031045       0.00000000 NULL      -0.00305800      -0.00191200       0.01321000
P       -0.00069328       8.72724121       3.53986900       0.00000000 NULL       0.00305800       0.00191200       0.01321000
P        1.27292472       6.45001068       6.16101391       0.00000000 NULL       0.00305800      -0.00191200      -0.01321000
P        2.54792929       3.66815724       1.31057246       0.00000000 NULL      -0.00305800       0.00191200      -0.01321000
P        2.54706141       8.71706025       1.30455955       0.00000000 NULL       0.00100200       0.00112100      -0.00625900
P        1.27379260       1.40110768       6.15500100       0.00000000 NULL      -0.00100200      -0.00112100      -0.00625900
P        0.00017460       3.65797629       3.54588190       0.00000000 NULL      -0.00100200       0.00112100       0.00625900
P        1.27344341       6.46019164       8.39632336       0.00000000 NULL       0.00100200      -0.00112100       0.00625900
12
Lattice="2.547239869288282 0.0 0.0 0.0 10.12529237028533 0.0 0.0 0.0 9.702744815028206" Properties=species:S:1:pos:R:3:initial_magmoms:R:1:castep_labels:S:1:forces:R:3 n_minim_iter=11 energy=-64.147854569045 stress="-0.00013726338389311515 -0.0 0.0 -0.0 0.00015932142986371185 -0.0 0.0 -0.0 -0.0002306903974424902" free_energy=-64.147854569045 pbc="T T T"
P        1.27345899       8.39321500       7.27610596       0.00000000 NULL       0.00144600      -0.00408700       0.00307600
P        2.54740081       1.73207737       2.42473355       0.00000000 NULL      -0.00144600       0.00408700       0.00307600
P        1.27378088       3.33056882       7.27801126       0.00000000 NULL      -0.00144600      -0.00408700      -0.00307600
P       -0.00016095       6.79472355       2.42663886       0.00000000 NULL       0.00144600       0.00408700      -0.00307600
P        1.27202845       1.39408252       8.39392827       0.00000000 NULL       0.00558200      -0.00180300       0.00545000
P        0.00159148       8.73120985       3.54255586       0.00000000 NULL      -0.00558200       0.00180300       0.00545000
P        1.27521142       6.45672871       6.16018896       0.00000000 NULL      -0.00558200      -0.00180300      -0.00545000
P        2.54564838       3.66856366       1.30881655       0.00000000 NULL       0.00558200       0.00180300      -0.00545100
P        2.54642320       8.72976737       1.30646546       0.00000000 NULL       0.00398200      -0.00242400      -0.00098500
P        1.27443660       1.39552500       6.15783787       0.00000000 NULL      -0.00398200       0.00242400      -0.00098500
P        0.00081667       3.66712118       3.54490694       0.00000000 NULL      -0.00398200      -0.00242400       0.00098500
P        1.27280327       6.45817119       8.39627935       0.00000000 NULL       0.00398200       0.00242400       0.00098500
