15
Lattice="6.48266999999803 -2.5240086028277104e-06 -4.37171143534756e-06 -2.1608870337530686 7.6185151823869885 1.4572371363375494e-06 -2.160887033752767 -3.809256329190918 6.597828415682193" Properties=species:S:1:pos:R:3:initial_magmoms:R:1:castep_labels:S:1 n_minim_iter=1 pbc="T T T"
P        4.17612427      -0.99067933       4.94627391       0.00000000 NULL
P        2.01523506       0.96968105       4.98263730       0.00000000 NULL
P       -0.14565647       0.02099248       3.26673663       0.00000000 NULL
P       -1.94777910       1.09876081       4.87026052       0.00000000 NULL
P        2.37399930      -0.14087107       3.21113965       0.00000000 NULL
P        0.21311026      -0.95789343       5.11425132       0.00000000 NULL
P       -3.00278285       2.90228792       5.77378679       0.00000000 NULL
P        1.31899283      -0.26015792       1.19747763       0.00000000 NULL
P       -0.84189470      -2.64213246       6.22438919       0.00000000 NULL
P        1.29253115       5.40893936       3.26501099       0.00000000 NULL
P        3.45341856       3.93236797       0.28103737       0.00000000 NULL
P       -0.86836029       2.08645923       3.05177398       0.00000000 NULL
P        4.35964765      -0.02473445       2.89963116       0.00000000 NULL
P        2.19875869      -1.28573600       5.16942562       0.00000000 NULL
P        0.03786967       1.31046444       5.12659069       0.00000000 NULL
15
Lattice="6.528504449017279 -2.5418541114815245e-06 -4.4026207651197635e-06 -2.1761651754867626 7.638906735918244 1.4675402474468619e-06 -2.1761651754864597 -3.819452097033797 6.615488024214443" Properties=species:S:1:pos:R:3:initial_magmoms:R:1:castep_labels:S:1 n_minim_iter=2 pbc="T T T"
P        4.20604433      -0.99357141       4.95972383       0.00000000 NULL
P        2.02987697       0.97257930       4.99607652       0.00000000 NULL
P       -0.14629271       0.02098630       3.27516665       0.00000000 NULL
P       -1.96189495       1.10194885       4.88342701       0.00000000 NULL
P        2.39043975      -0.14125836       3.21945507       0.00000000 NULL
P        0.21427256      -0.96069419       5.12808859       0.00000000 NULL
P       -3.02405830       2.90995880       5.78909155       0.00000000 NULL
P        1.32827367      -0.26093484       1.20084168       0.00000000 NULL
P       -0.84789201      -2.64902642       6.24103960       0.00000000 NULL
P        1.30167019       5.42331684       3.27366805       0.00000000 NULL
P        3.47783574       3.94287223       0.28191715       0.00000000 NULL
P       -0.87449940       2.09216479       3.05989672       0.00000000 NULL
P        4.39046688      -0.02481623       2.90708964       0.00000000 NULL
P        2.21429977      -1.28943165       5.18342677       0.00000000 NULL
P        0.03813261       1.31424184       5.14045022       0.00000000 NULL
15
Lattice="7.206973113551684 -2.8060139016503733e-06 -4.8601589740475195e-06 -2.4023212837649948 7.929735350753765 1.620052982829657e-06 -2.4023212837646803 -3.9648662723717276 6.867353069065778" Properties=species:S:1:pos:R:3:initial_magmoms:R:1:castep_labels:S:1 n_minim_iter=3 pbc="T T T"
P        4.64934659      -1.03504788       5.15170686       0.00000000 NULL
P        2.24702304       1.01416550       5.18786906       0.00000000 NULL
P       -0.15530293       0.02087618       3.39512035       0.00000000 NULL
P       -2.17118944       1.14763374       5.07129116       0.00000000 NULL
P        2.63345763      -0.14682016       3.33782351       0.00000000 NULL
P        0.23113427      -1.00081743       5.32558568       0.00000000 NULL
P       -3.33905935       3.01932791       6.00727581       0.00000000 NULL
P        1.46558490      -0.27208077       1.24889806       0.00000000 NULL
P       -0.93673691      -2.74724963       6.47852884       0.00000000 NULL
P        1.43697417       5.62841332       3.39712266       0.00000000 NULL
P        3.83929585       4.09265294       0.29443557       0.00000000 NULL
P       -0.96535169       2.17353010       3.17578823       0.00000000 NULL
P        4.84665367      -0.02601955       3.01341026       0.00000000 NULL
P        2.44433039      -1.34216785       5.38317292       0.00000000 NULL
P        0.04200704       1.36818096       5.33811269       0.00000000 NULL
15
Lattice="7.569589259601305 -2.947197437197353e-06 -5.104696047474807e-06 -2.5231932939973536 8.028492649747264 1.7015653396866846e-06 -2.5231932939970356 -4.0142448512767315 6.952879439559454" Properties=species:S:1:pos:R:3:initial_magmoms:R:1:castep_labels:S:1 n_minim_iter=4 pbc="T T T"
P        4.88749456      -1.05139847       5.21770869       0.00000000 NULL
P        2.36429898       1.03012145       5.25455419       0.00000000 NULL
P       -0.15889906       0.02127063       3.43348571       0.00000000 NULL
P       -2.28391596       1.16534691       5.13504069       0.00000000 NULL
P        2.76247518      -0.14984677       3.37613494       0.00000000 NULL
P        0.23927978      -1.01550404       5.39457726       0.00000000 NULL
P       -3.50778567       3.05756483       6.08137794       0.00000000 NULL
P        1.53860262      -0.27640364       1.26425918       0.00000000 NULL
P       -0.98459120      -2.78116367       6.56011825       0.00000000 NULL
P        1.50952420       5.69968667       3.43947391       0.00000000 NULL
P        4.03271789       4.14307209       0.29706149       0.00000000 NULL
P       -1.01367374       2.19997335       3.21633718       0.00000000 NULL
P        5.09025022      -0.02695172       3.04996772       0.00000000 NULL
P        2.56705490      -1.35942067       5.45122749       0.00000000 NULL
P        0.04385952       1.38636577       5.40455297       0.00000000 NULL
15
Lattice="7.755769880835824 -3.0196863175549996e-06 -5.230250479737276e-06 -2.585253515387547 7.991733643533468 1.7434168172934554e-06 -2.5852535153872314 -3.995865311925385 6.921045227286181" Properties=species:S:1:pos:R:3:initial_magmoms:R:1:castep_labels:S:1 n_minim_iter=5 pbc="T T T"
P        5.01104941      -1.05006117       5.19468064       0.00000000 NULL
P        2.42579362       1.02788948       5.23307571       0.00000000 NULL
P       -0.15946463       0.02216525       3.41432361       0.00000000 NULL
P       -2.34230044       1.16320071       5.11081476       0.00000000 NULL
P        2.82821112      -0.15137447       3.35827233       0.00000000 NULL
P        0.24295552      -1.01183013       5.37299730       0.00000000 NULL
P       -3.59486024       3.04558288       6.05381907       0.00000000 NULL
P        1.57564848      -0.27589986       1.25658108       0.00000000 NULL
P       -1.00960556      -2.76968545       6.53168676       0.00000000 NULL
P        1.54665401       5.67708571       3.42461130       0.00000000 NULL
P        4.13190792       4.12312164       0.29223147       0.00000000 NULL
P       -1.03860412       2.18738619       3.20419549       0.00000000 NULL
P        5.21511148      -0.02761759       3.03688497       0.00000000 NULL
P        2.62985595      -1.35203818       5.42651115       0.00000000 NULL
P        0.04460035       1.37964909       5.37868343       0.00000000 NULL
15
Lattice="7.914658168595194 -3.081549007683793e-06 -5.337399809360802e-06 -2.6382163138425394 7.899608828994226 1.7791332605907208e-06 -2.6382163138422268 -3.9498028737243978 6.841262815434502" Properties=species:S:1:pos:R:3:initial_magmoms:R:1:castep_labels:S:1 n_minim_iter=6 pbc="T T T"
P        5.11801030      -1.04341670       5.13584895       0.00000000 NULL
P        2.47979174       1.01967995       5.17695474       0.00000000 NULL
P       -0.15842926       0.02373028       3.36971129       0.00000000 NULL
P       -2.39221164       1.15472809       5.05008787       0.00000000 NULL
P        2.88422546      -0.15366680       3.31619084       0.00000000 NULL
P        0.24600709      -1.00106515       5.31624079       0.00000000 NULL
P       -3.66991798       3.01354927       5.98415693       0.00000000 NULL
P        1.60651632      -0.27414985       1.23937167       0.00000000 NULL
P       -1.03170051      -2.73940178       6.45899348       0.00000000 NULL
P        1.57798791       5.61786013       3.38658749       0.00000000 NULL
P        4.21620460       4.07374242       0.28275173       0.00000000 NULL
P       -1.06023297       2.15780374       3.17191655       0.00000000 NULL
P        5.32133695      -0.02863627       3.00421925       0.00000000 NULL
P        2.68311864      -1.33375574       5.36394368       0.00000000 NULL
P        0.04490027       1.36238530       5.31435164       0.00000000 NULL
15
Lattice="8.104704981121504 -3.1555431782251043e-06 -5.46556148119201e-06 -2.7015652742562497 7.840779748638715 1.8218538139167024e-06 -2.7015652742559397 -3.92038829654954 6.790315358725643" Properties=species:S:1:pos:R:3:initial_magmoms:R:1:castep_labels:S:1 n_minim_iter=7 pbc="T T T"
P        5.24713866      -1.04553053       5.10011240       0.00000000 NULL
P        2.54557117       1.01920269       5.14570603       0.00000000 NULL
P       -0.15599877       0.02632133       3.33480144       0.00000000 NULL
P       -2.45048549       1.15534629       5.00911710       0.00000000 NULL
P        2.95264949      -0.16004312       3.28519336       0.00000000 NULL
P        0.25108219      -0.99530701       5.28631405       0.00000000 NULL
P       -3.76105530       2.99415575       5.93712824       0.00000000 NULL
P        1.64207691      -0.27576662       1.22873386       0.00000000 NULL
P       -1.05948887      -2.71839143       6.41476506       0.00000000 NULL
P        1.61472030       5.58603110       3.36292387       0.00000000 NULL
P        4.31628594       4.03974908       0.27120071       0.00000000 NULL
P       -1.08684951       2.13538244       3.15618363       0.00000000 NULL
P        5.44788321      -0.03088070       2.98622968       0.00000000 NULL
P        2.74631596      -1.31879836       5.32393459       0.00000000 NULL
P        0.04474863       1.34967231       5.27045519       0.00000000 NULL
15
Lattice="8.282828559930044 -3.224895072927922e-06 -5.585682493871288e-06 -2.760939843018645 7.731640948829068 1.8618941073714392e-06 -2.7609398430183387 -3.865818861968707 6.695798405572152" Properties=species:S:1:pos:R:3:initial_magmoms:R:1:castep_labels:S:1 n_minim_iter=8 pbc="T T T"
P        5.37021301      -1.04767001       5.03310710       0.00000000 NULL
P        2.60927099       1.01681359       5.08654443       0.00000000 NULL
P       -0.15167347       0.03084988       3.27193425       0.00000000 NULL
P       -2.50060658       1.15467290       4.93224644       0.00000000 NULL
P        3.02127746      -0.17170898       3.22969489       0.00000000 NULL
P        0.26033564      -0.98296771       5.22964920       0.00000000 NULL
P       -3.85014987       2.95460818       5.84627475       0.00000000 NULL
P        1.67173145      -0.28010488       1.21389288       0.00000000 NULL
P       -1.08920888      -2.67450551       6.33142564       0.00000000 NULL
P        1.64754855       5.52629629       3.31822456       0.00000000 NULL
P        4.40848873       3.97633632       0.25076519       0.00000000 NULL
P       -1.11339576       2.09482179       3.12680144       0.00000000 NULL
P        5.56522068      -0.03515593       2.95393087       0.00000000 NULL
P        2.80427888      -1.29006288       5.24926937       0.00000000 NULL
P        0.04333701       1.32521205       5.18838515       0.00000000 NULL
