8
Lattice="3.424120810743467 0.0 0.0 0.0 5.334954700880973 0.0 0.0 0.0 7.199162828799083" Properties=species:S:1:pos:R:3:initial_magmoms:R:1:castep_labels:S:1:forces:R:3 n_minim_iter=1 energy=-43.469637391144 stress="-0.001051547526515854 -0.0 0.0 -0.0 0.0056999822210684024 -0.0 0.0 -0.0 -0.006358482588385439" free_energy=-43.469637391144 pbc="T T T"
P        2.69648063       4.04770189       0.96086059       0.00000000 NULL      -0.34704900      -0.63846700       0.61752000
P        0.72764018       1.38022454       2.63872082       0.00000000 NULL       0.34704900      -0.63846900      -0.61752000
P        0.98442023       3.95473016       6.23830223       0.00000000 NULL      -0.34704900       0.63846900      -0.61751900
P        2.43970058       1.28725281       4.56044201       0.00000000 NULL       0.34705000       0.63846700       0.61752000
P        2.48980082       0.89816686       1.09811583       0.00000000 NULL       0.09417600       0.54283800       0.27945600
P        0.93431999       3.56564421       2.50146559       0.00000000 NULL      -0.09417600       0.54284100      -0.27945600
P        0.77774041       1.76931049       6.10104700       0.00000000 NULL       0.09417500      -0.54284000      -0.27945600
P        2.64638040       4.43678784       4.69769724       0.00000000 NULL      -0.09417500      -0.54283800       0.27945600
8
Lattice="3.444040330561241 0.0 0.0 0.0 5.169821189431213 0.0 0.0 0.0 7.456151997063174" Properties=species:S:1:pos:R:3:initial_magmoms:R:1:castep_labels:S:1:forces:R:3 n_minim_iter=2 energy=-43.642935834443 stress="0.01351104501271267 0.0 -0.0 0.0 -0.022275458770994034 0.0 -0.0 0.0 0.01277790271327" free_energy=-43.642935834443 pbc="T T T"
P        2.69752555       3.89646135       1.02198693       0.00000000 NULL      -0.31325600      -0.65953800       0.63767900
P        0.74651478       1.31155076       2.70608907       0.00000000 NULL       0.31325600      -0.65953600      -0.63767900
P        0.97550538       3.85827043       6.43416507       0.00000000 NULL      -0.31325600       0.65953700      -0.63768000
P        2.46853495       1.27335983       4.75006293       0.00000000 NULL       0.31325600       0.65953800       0.63768000
P        2.50825817       0.89243033       1.14945555       0.00000000 NULL       0.13179000       0.63506200       0.38407000
P        0.93578216       3.47734093       2.57862045       0.00000000 NULL      -0.13179000       0.63506000      -0.38407000
P        0.78623801       1.69248026       6.30669645       0.00000000 NULL       0.13179100      -0.63506000      -0.38407000
P        2.65780232       4.27739086       4.87753154       0.00000000 NULL      -0.13179100      -0.63506200       0.38407000
8
Lattice="3.373585308877003 0.0 0.0 0.0 5.165555653742494 0.0 0.0 0.0 7.6652222404478785" Properties=species:S:1:pos:R:3:initial_magmoms:R:1:castep_labels:S:1:forces:R:3 n_minim_iter=3 energy=-43.957250271789 stress="-0.00020909202428865407 0.0 -0.0 0.0 0.00108903031769676 0.0 -0.0 0.0 0.003802734860639624" free_energy=-43.957250271789 pbc="T T T"
P        2.61428422       3.84155807       1.10636904       0.00000000 NULL      -0.30196000      -0.01542800       0.52814500
P        0.75930109       1.25878025       2.72624209       0.00000000 NULL       0.30196000      -0.01543000      -0.52814500
P        0.92749156       3.90677541       6.55885321       0.00000000 NULL      -0.30195900       0.01543000      -0.52814500
P        2.44609375       1.32399758       4.93898016       0.00000000 NULL       0.30195900       0.01542800       0.52814500
P        2.46533375       0.93680368       1.20866130       0.00000000 NULL       0.13652700       0.04635100       0.22923800
P        0.90825156       3.51958151       2.62394982       0.00000000 NULL      -0.13652700       0.04635300      -0.22923800
P        0.77854109       1.64597415       6.45656094       0.00000000 NULL       0.13652900      -0.04635400      -0.22923800
P        2.59504422       4.22875197       5.04127242       0.00000000 NULL      -0.13652900      -0.04635100       0.22923800
8
Lattice="3.381785048474659 0.0 0.0 0.0 5.124615643177916 0.0 0.0 0.0 7.585683899229915" Properties=species:S:1:pos:R:3:initial_magmoms:R:1:castep_labels:S:1:forces:R:3 n_minim_iter=4 energy=-43.9885514278 stress="-0.012018707526409912 0.0 -0.0 0.0 -0.01875804101618111 -0.0 -0.0 -0.0 -0.013301886602890497" free_energy=-43.9885514278 pbc="T T T"
P        2.61209662       3.80969044       1.11196471       0.00000000 NULL      -0.28035600      -0.05783000       0.30462900
P        0.76968842       1.24738262       2.68087724       0.00000000 NULL       0.28035600      -0.05783200      -0.30462900
P        0.92120410       3.87723303       6.47371919       0.00000000 NULL      -0.28035600       0.05783200      -0.30462900
P        2.46058095       1.31492521       4.90480666       0.00000000 NULL       0.28035600       0.05783000       0.30462900
P        2.47504467       0.93137099       1.20347332       0.00000000 NULL       0.13520600       0.07449800       0.01318100
P        0.90674037       3.49367881       2.58936863       0.00000000 NULL      -0.13520600       0.07450000      -0.01318100
P        0.78415215       1.63093683       6.38221058       0.00000000 NULL       0.13520600      -0.07450000      -0.01318100
P        2.59763290       4.19324466       4.99631527       0.00000000 NULL      -0.13520600      -0.07449800       0.01318100
8
Lattice="3.467272295229105 0.0 0.0 0.0 5.157353665488391 0.0 0.0 0.0 7.558688963273156" Properties=species:S:1:pos:R:3:initial_magmoms:R:1:castep_labels:S:1:forces:R:3 n_minim_iter=5 energy=-44.048406359744 stress="0.01237355257619363 0.0 -0.0 0.0 -0.002091309870916287 -0.0 -0.0 -0.0 -0.007651144501032254" free_energy=-44.048406359744 pbc="T T T"
P        2.65816867       3.83375834       1.14455147       0.00000000 NULL      -0.19719000       0.07041300       0.15449300
P        0.80910363       1.25508150       2.63479301       0.00000000 NULL       0.19719000       0.07041100      -0.15449300
P        0.92453252       3.90227216       6.41413749       0.00000000 NULL      -0.19718800      -0.07041100      -0.15449300
P        2.54273978       1.32359533       4.92389595       0.00000000 NULL       0.19718800      -0.07041300       0.15449300
P        2.54665607       0.93936647       1.21325929       0.00000000 NULL       0.17106300      -0.03122200      -0.04426100
P        0.92061623       3.51804331       2.56608519       0.00000000 NULL      -0.17106300      -0.03122000       0.04426100
P        0.81301992       1.63931036       6.34542967       0.00000000 NULL       0.17106500       0.03121900       0.04426100
P        2.65425238       4.21798719       4.99260378       0.00000000 NULL      -0.17106500       0.03122200      -0.04426100
8
Lattice="3.413241529610427 0.0 0.0 0.0 5.183525420693613 0.0 0.0 0.0 7.744013114827321" Properties=species:S:1:pos:R:3:initial_magmoms:R:1:castep_labels:S:1:forces:R:3 n_minim_iter=6 energy=-44.120306183128 stress="0.0027216610088729174 -0.0 7.298635046588677e-08 -0.0 -0.0014525013606216124 0.0 7.298635046588677e-08 0.0 -0.007433732781301033" free_energy=-44.120306183128 pbc="T T T"
P        2.59518447       3.86022116       1.20796580       0.00000000 NULL      -0.08260500       0.07836000      -0.02284200
P        0.81805706       1.26845845       2.66404075       0.00000000 NULL       0.08260500       0.07836200       0.02284200
P        0.88856371       3.91506697       6.53604731       0.00000000 NULL      -0.08260900      -0.07836200       0.02284200
P        2.52467782       1.32330426       5.07997236       0.00000000 NULL       0.08260800      -0.07836000      -0.02284200
P        2.51930430       0.94042776       1.25280563       0.00000000 NULL       0.17340600      -0.02468200      -0.13978300
P        0.89393723       3.53219047       2.61920093       0.00000000 NULL      -0.17340600      -0.02468400       0.13978300
P        0.81268353       1.65133495       6.49120749       0.00000000 NULL       0.17340300       0.02468400       0.13978300
P        2.60055800       4.24309766       5.12481219       0.00000000 NULL      -0.17340300       0.02468200      -0.13978300
8
Lattice="3.4093057527570894 0.0 0.0 0.0 5.180378460058597 0.0 0.0 0.0 7.7575520480825535" Properties=species:S:1:pos:R:3:initial_magmoms:R:1:castep_labels:S:1:forces:R:3 n_minim_iter=7 energy=-44.140284110907 stress="0.0034852211626290406 -0.0 0.0 -0.0 -0.0014090216863427703 0.0 0.0 0.0 -0.005641560800096578" free_energy=-44.140284110907 pbc="T T T"
P        2.57961857       3.86294507       1.21960373       0.00000000 NULL      -0.17588800       0.06671200      -0.02840700
P        0.82968718       1.27275584       2.65917230       0.00000000 NULL       0.17588800       0.06671500       0.02840700
P        0.87496570       3.90762262       6.53794832       0.00000000 NULL      -0.17589000      -0.06671500       0.02840700
P        2.53434006       1.31743339       5.09837975       0.00000000 NULL       0.17589000      -0.06671200      -0.02840700
P        2.55256812       0.94734454       1.23897819       0.00000000 NULL      -0.08641100      -0.01135500      -0.03009800
P        0.85673763       3.53753377       2.63979783       0.00000000 NULL       0.08641100      -0.01135800       0.03009800
P        0.84791524       1.64284469       6.51857386       0.00000000 NULL      -0.08641200       0.01135800       0.03009800
P        2.56139051       4.23303392       5.11775422       0.00000000 NULL       0.08641200       0.01135500      -0.03009800
8
Lattice="3.4023542594037424 0.0 0.0 0.0 5.1789300170220605 0.0 0.0 0.0 7.764449975834801" Properties=species:S:1:pos:R:3:initial_magmoms:R:1:castep_labels:S:1:forces:R:3 n_minim_iter=8 energy=-44.150120196423 stress="0.003667317313655657 0.0 -0.0 0.0 -0.0013444539934504354 0.0 -0.0 0.0 -0.0038158402295353612" free_energy=-44.150120196423 pbc="T T T"
P        2.55015644       3.86950331       1.21869440       0.00000000 NULL       0.01017400       0.04498800       0.02379800
P        0.85219782       1.28003831       2.66353059       0.00000000 NULL      -0.01017500       0.04498800      -0.02379800
P        0.84897931       3.89889171       6.54575558       0.00000000 NULL       0.01017600      -0.04498800      -0.02379800
P        2.55337495       1.30942670       5.10091938       0.00000000 NULL      -0.01017600      -0.04498800       0.02379800
P        2.55246169       0.95499191       1.23132072       0.00000000 NULL       0.00255300       0.00775000       0.05518600
P        0.84989256       3.54445692       2.65090427       0.00000000 NULL      -0.00255300       0.00775000      -0.05518600
P        0.85128456       1.63447310       6.53312926       0.00000000 NULL       0.00255500      -0.00775000      -0.05518600
P        2.55106969       4.22393811       5.11354571       0.00000000 NULL      -0.00255500      -0.00775000       0.05518600
8
Lattice="3.36206598769003 0.0 0.0 0.0 5.192154232080503 0.0 0.0 0.0 7.963147679424717" Properties=species:S:1:pos:R:3:initial_magmoms:R:1:castep_labels:S:1:forces:R:3 n_minim_iter=9 energy=-44.163657410565 stress="-0.001274102874954052 0.0 0.0 0.0 -0.0014909255312191704 -0.0 0.0 -0.0 -0.0006096068975416767" free_energy=-44.163657410565 pbc="T T T"
P        2.51070236       3.91343458       1.25131391       0.00000000 NULL       0.03378600       0.02763800       0.03369700
P        0.85136363       1.31735746       2.73025993       0.00000000 NULL      -0.03378700       0.02763900      -0.03369700
P        0.82966936       3.87479677       6.71183377       0.00000000 NULL       0.03378600      -0.02763900      -0.03369700
P        2.53239662       1.27871965       5.23288775       0.00000000 NULL      -0.03378600      -0.02763800       0.03369700
P        2.53259863       0.98422985       1.29272471       0.00000000 NULL      -0.03954800       0.02885400      -0.08418700
P        0.82946735       3.58030696       2.68884913       0.00000000 NULL       0.03954800       0.02885300       0.08418600
P        0.85156564       1.61184727       6.67042297       0.00000000 NULL      -0.03954900      -0.02885200       0.08418700
P        2.51050035       4.20792439       5.27429855       0.00000000 NULL       0.03954800      -0.02885400      -0.08418600
8
Lattice="3.334991285050397 0.0 0.0 0.0 5.202534152605543 0.0 0.0 0.0 8.0623029628864" Properties=species:S:1:pos:R:3:initial_magmoms:R:1:castep_labels:S:1:forces:R:3 n_minim_iter=10 energy=-44.171250298863 stress="-0.005359575426539534 -0.0 -7.148769442644633e-08 -0.0 -0.0007747836321938253 0.0 -7.148769442644633e-08 0.0 -0.0002977462472861489" free_energy=-44.171250298863 pbc="T T T"
P        2.50085884       3.95059438       1.29390145       0.00000000 NULL       0.01296600       0.02864800      -0.05230600
P        0.83413245       1.34932731       2.73725003       0.00000000 NULL      -0.01296600       0.02864900       0.05230600
P        0.83336319       3.85320685       6.76840151       0.00000000 NULL       0.01296800      -0.02864900       0.05230600
P        2.50162809       1.25193977       5.32505293       0.00000000 NULL      -0.01296800      -0.02864800      -0.05230600
P        2.49963471       1.01345881       1.29233142       0.00000000 NULL       0.01713100       0.03122900      -0.01227100
P        0.83535658       3.61472589       2.73882006       0.00000000 NULL      -0.01713100       0.03122800       0.01227100
P        0.83213907       1.58780826       6.76997154       0.00000000 NULL       0.01713300      -0.03122800       0.01227100
P        2.50285222       4.18907534       5.32348291       0.00000000 NULL      -0.01713300      -0.03122900      -0.01227100
8
Lattice="3.36153105143414 0.0 0.0 0.0 5.192015564843722 0.0 0.0 0.0 8.059819949749087" Properties=species:S:1:pos:R:3:initial_magmoms:R:1:castep_labels:S:1:forces:R:3 n_minim_iter=11 energy=-44.183871895062 stress="0.004857359229680861 -0.0 -0.0 -0.0 0.0005163894368985155 0.0 -0.0 0.0 0.0033792086843296995" free_energy=-44.183871895062 pbc="T T T"
P        2.52024503       4.01118957       1.29009891       0.00000000 NULL       0.00433400       0.02918100       0.03844200
P        0.84128602       1.41518179       2.73981106       0.00000000 NULL      -0.00433400       0.02917800      -0.03844200
P        0.83947950       3.77683378       6.76972104       0.00000000 NULL       0.00433400      -0.02917800      -0.03844200
P        2.52205155       1.18082600       5.32000889       0.00000000 NULL      -0.00433400      -0.02918100       0.03844200
P        2.52182210       1.08922961       1.29108749       0.00000000 NULL      -0.00107900      -0.00599100       0.05091900
P        0.83970895       3.68523740       2.73882248       0.00000000 NULL       0.00107900      -0.00598800      -0.05091900
P        0.84105657       1.50677817       6.76873246       0.00000000 NULL      -0.00107800       0.00598800      -0.05091900
P        2.52047448       4.10278595       5.32099746       0.00000000 NULL       0.00107800       0.00599100       0.05091900
8
Lattice="3.353481532502758 0.0 0.0 0.0 5.203076137053132 0.0 0.0 0.0 8.077434903020421" Properties=species:S:1:pos:R:3:initial_magmoms:R:1:castep_labels:S:1:forces:R:3 n_minim_iter=12 energy=-44.187337617856 stress="0.0022507690766574856 0.0 7.0952937288238e-08 0.0 0.0009807114991980256 -0.0 7.0952937288238e-08 -0.0 0.0015510312091208825" free_energy=-44.187337617856 pbc="T T T"
P        2.51465947       4.05573992       1.29673743       0.00000000 NULL       0.00216800       0.02347100       0.01162800
P        0.83882206       1.45420185       2.74198002       0.00000000 NULL      -0.00216800       0.02347200      -0.01162800
P        0.83791871       3.74887429       6.78069747       0.00000000 NULL       0.00216500      -0.02347200      -0.01162800
P        2.51556283       1.14733622       5.33545489       0.00000000 NULL      -0.00216500      -0.02347100       0.01162800
P        2.51545259       1.12178718       1.29713860       0.00000000 NULL      -0.00056000      -0.01684300       0.01382500
P        0.83802894       3.72332525       2.74157885       0.00000000 NULL       0.00056000      -0.01684400      -0.01382500
P        0.83871182       1.47975089       6.78029630       0.00000000 NULL      -0.00056400       0.01684400      -0.01382500
P        2.51476971       4.08128895       5.33585605       0.00000000 NULL       0.00056400       0.01684300       0.01382500
8
Lattice="3.3481719462625823 0.0 0.0 0.0 5.210057387498065 0.0 0.0 0.0 8.068883923899016" Properties=species:S:1:pos:R:3:initial_magmoms:R:1:castep_labels:S:1:forces:R:3 n_minim_iter=13 energy=-44.188059513825 stress="-0.00020262163447727486 -0.0 0.0 -0.0 0.0002859579518832508 -0.0 0.0 -0.0 0.00010415263539399893" free_energy=-44.188059513825 pbc="T T T"
P        2.51144240       4.07578433       1.29544681       0.00000000 NULL      -0.00155400       0.00142100       0.00349900
P        0.83672955       1.47075563       2.73899516       0.00000000 NULL       0.00155300       0.00142400      -0.00349900
P        0.83735643       3.73930175       6.77343712       0.00000000 NULL      -0.00155400      -0.00142400      -0.00349900
P        2.51081552       1.13427306       5.32988877       0.00000000 NULL       0.00155400      -0.00142100       0.00349900
P        2.51090076       1.13056701       1.29638334       0.00000000 NULL       0.00030000      -0.00073200       0.00025300
P        0.83727118       3.73559570       2.73805863       0.00000000 NULL      -0.00029900      -0.00073500      -0.00025300
P        0.83681479       1.47446169       6.77250059       0.00000000 NULL       0.00029900       0.00073500      -0.00025300
P        2.51135716       4.07949038       5.33082530       0.00000000 NULL      -0.00029900       0.00073200       0.00025300
