12
Lattice="4.01299 0.0 0.0 0.0 7.293119999999999 0.0 0.0 0.0 9.368429999999998" Properties=species:S:1:pos:R:3:initial_magmoms:R:1:castep_labels:S:1 n_minim_iter=1 pbc="T T T"
P        2.93937352       2.15034653       6.71064576       0.00000000 NULL
P        1.07361648       2.15034653       2.65778424       0.00000000 NULL
P        0.93287852       2.15034653       7.34199924       0.00000000 NULL
P        3.08011148       2.15034653       2.02643076       0.00000000 NULL
P        3.01181882       2.72651760       4.78613790       0.00000000 NULL
P        1.00117118       2.72651760       4.58229210       0.00000000 NULL
P        1.00532382       2.72651760       9.26650710       0.00000000 NULL
P        3.00766618       2.72651760       0.10192290       0.00000000 NULL
P        2.21951374       5.80872430       8.19296840       0.00000000 NULL
P        1.79347626       5.80872430       1.17546160       0.00000000 NULL
P        0.21301874       5.80872430       5.85967660       0.00000000 NULL
P        3.79997126       5.80872430       3.50875340       0.00000000 NULL
12
Lattice="4.030250739979694 0.0 0.0 0.0 7.289581748104834 0.0 0.0 0.0 9.38697562036414" Properties=species:S:1:pos:R:3:initial_magmoms:R:1:castep_labels:S:1 n_minim_iter=2 pbc="T T T"
P        2.95202056       2.14920879       6.72405510       0.00000000 NULL
P        1.07823018       2.14920879       2.66292052       0.00000000 NULL
P        0.93689519       2.14920879       7.35640833       0.00000000 NULL
P        3.09335555       2.14920879       2.03056729       0.00000000 NULL
P        3.02475472       2.72526735       4.79553760       0.00000000 NULL
P        1.00549602       2.72526735       4.59143802       0.00000000 NULL
P        1.00962935       2.72526735       9.28492583       0.00000000 NULL
P        3.02062139       2.72526735       0.10204979       0.00000000 NULL
P        2.22903463       5.80592819       8.20936529       0.00000000 NULL
P        1.80121611       5.80592819       1.17761033       0.00000000 NULL
P        0.21390926       5.80592819       5.87109814       0.00000000 NULL
P        3.81634148       5.80592819       3.51587748       0.00000000 NULL
12
Lattice="4.370690621463077 0.0 0.0 0.0 7.219526498073045 0.0 0.0 0.0 9.737425876311388" Properties=species:S:1:pos:R:3:initial_magmoms:R:1:castep_labels:S:1 n_minim_iter=3 pbc="T T T"
P        3.20148027       2.12677280       6.97765964       0.00000000 NULL
P        1.16921035       2.12677280       2.75976623       0.00000000 NULL
P        1.01613496       2.12677280       7.62847917       0.00000000 NULL
P        3.35455567       2.12677280       2.10894670       0.00000000 NULL
P        3.27986330       2.70042116       4.97308989       0.00000000 NULL
P        1.09082732       2.70042116       4.76433598       0.00000000 NULL
P        1.09451799       2.70042116       9.63304892       0.00000000 NULL
P        3.27617263       2.70042116       0.10437696       0.00000000 NULL
P        2.41676139       5.75056821       8.51961837       0.00000000 NULL
P        1.95392923       5.75056821       1.21780751       0.00000000 NULL
P        0.23141608       5.75056821       6.08652044       0.00000000 NULL
P        4.13927454       5.75056821       3.65090543       0.00000000 NULL
12
Lattice="4.501858503086478 0.0 0.0 0.0 7.129117442202653 0.0 0.0 0.0 9.668937640772175" Properties=species:S:1:pos:R:3:initial_magmoms:R:1:castep_labels:S:1 n_minim_iter=4 pbc="T T T"
P        3.29816117       2.09938493       6.93125384       0.00000000 NULL
P        1.20369733       2.09938493       2.73768380       0.00000000 NULL
P        1.04723192       2.09938493       7.57215262       0.00000000 NULL
P        3.45462658       2.09938493       2.09678502       0.00000000 NULL
P        3.37795568       2.66672961       4.93764447       0.00000000 NULL
P        1.12390282       2.66672961       4.73129317       0.00000000 NULL
P        1.12702643       2.66672961       9.56576199       0.00000000 NULL
P        3.37483207       2.66672961       0.10317565       0.00000000 NULL
P        2.48813999       5.67918389       8.46619393       0.00000000 NULL
P        2.01371851       5.67918389       1.20274372       0.00000000 NULL
P        0.23721074       5.67918389       6.03721254       0.00000000 NULL
P        4.26464776       5.67918389       3.63172510       0.00000000 NULL
12
Lattice="4.679665065689421 0.0 0.0 0.0 6.9847683980262465 0.0 0.0 0.0 9.589581494321934" Properties=species:S:1:pos:R:3:initial_magmoms:R:1:castep_labels:S:1 n_minim_iter=5 pbc="T T T"
P        3.42954073       2.05496829       6.88327699       0.00000000 NULL
P        1.25012434       2.05496829       2.70630451       0.00000000 NULL
P        1.08970820       2.05496829       7.50109525       0.00000000 NULL
P        3.58995687       2.05496829       2.08848624       0.00000000 NULL
P        3.51095351       2.61317924       4.89359290       0.00000000 NULL
P        1.16871155       2.61317924       4.69598859       0.00000000 NULL
P        1.17112098       2.61317924       9.49077934       0.00000000 NULL
P        3.50854408       2.61317924       0.09880215       0.00000000 NULL
P        2.58313852       5.56565643       8.41072974       0.00000000 NULL
P        2.09652654       5.56565643       1.17885176       0.00000000 NULL
P        0.24330599       5.56565643       5.97364251       0.00000000 NULL
P        4.43635907       5.56565643       3.61593899       0.00000000 NULL
12
Lattice="4.717016034121053 0.0 0.0 0.0 6.863387287618223 0.0 0.0 0.0 9.563932759704828" Properties=species:S:1:pos:R:3:initial_magmoms:R:1:castep_labels:S:1 n_minim_iter=6 pbc="T T T"
P        3.45859452       2.01682723       6.87778716       0.00000000 NULL
P        1.25842151       2.01682723       2.68614560       0.00000000 NULL
P        1.10008650       2.01682723       7.46811198       0.00000000 NULL
P        3.61692953       2.01682723       2.09582078       0.00000000 NULL
P        3.53824072       2.56844589       4.87404645       0.00000000 NULL
P        1.17877531       2.56844589       4.68988631       0.00000000 NULL
P        1.17973270       2.56844589       9.47185269       0.00000000 NULL
P        3.53728333       2.56844589       0.09208007       0.00000000 NULL
P        2.59888594       5.47068808       8.40399589       0.00000000 NULL
P        2.11813009       5.47068808       1.15993687       0.00000000 NULL
P        0.24037793       5.47068808       5.94190325       0.00000000 NULL
P        4.47663811       5.47068808       3.62202951       0.00000000 NULL
12
Lattice="4.7165374831496125 0.0 0.0 0.0 6.686399577777228 0.0 0.0 0.0 9.454632940171244" Properties=species:S:1:pos:R:3:initial_magmoms:R:1:castep_labels:S:1 n_minim_iter=7 pbc="T T T"
P        3.46050108       1.96194840       6.81564424       0.00000000 NULL
P        1.25603641       1.96194840       2.63898870       0.00000000 NULL
P        1.10223234       1.96194840       7.36630517       0.00000000 NULL
P        3.61430515       1.96194840       2.08832777       0.00000000 NULL
P        3.53682099       2.50281159       4.81028309       0.00000000 NULL
P        1.17971649       2.50281159       4.64434985       0.00000000 NULL
P        1.17855225       2.50281159       9.37166632       0.00000000 NULL
P        3.53798523       2.50281159       0.08296662       0.00000000 NULL
P        2.59245435       5.33188588       8.32878172       0.00000000 NULL
P        2.12408314       5.33188588       1.12585122       0.00000000 NULL
P        0.23418560       5.33188588       5.85316769       0.00000000 NULL
P        4.48235188       5.33188588       3.60146525       0.00000000 NULL
12
Lattice="4.713925532583307 0.0 0.0 0.0 6.572452479589961 0.0 0.0 0.0 9.480459241279824" Properties=species:S:1:pos:R:3:initial_magmoms:R:1:castep_labels:S:1 n_minim_iter=8 pbc="T T T"
P        3.45956298       1.92695093       6.84271665       0.00000000 NULL
P        1.25436256       1.92695093       2.63774259       0.00000000 NULL
P        1.10260021       1.92695093       7.37797221       0.00000000 NULL
P        3.61132532       1.92695093       2.10248703       0.00000000 NULL
P        3.53436544       2.46089282       4.81866431       0.00000000 NULL
P        1.17956009       2.46089282       4.66179493       0.00000000 NULL
P        1.17740267       2.46089282       9.40202455       0.00000000 NULL
P        3.53652286       2.46089282       0.07843469       0.00000000 NULL
P        2.58885284       5.24185138       8.36115218       0.00000000 NULL
P        2.12507269       5.24185138       1.11930706       0.00000000 NULL
P        0.23189007       5.24185138       5.85953668       0.00000000 NULL
P        4.48203546       5.24185138       3.62092256       0.00000000 NULL
12
Lattice="4.710737202677925 0.0 0.0 0.0 6.51494865252077 0.0 0.0 0.0 9.454983287785899" Properties=species:S:1:pos:R:3:initial_magmoms:R:1:castep_labels:S:1 n_minim_iter=9 pbc="T T T"
P        3.45760242       1.90955209       6.82757083       0.00000000 NULL
P        1.25313479       1.90955209       2.62741246       0.00000000 NULL
P        1.10223382       1.90955209       7.35490410       0.00000000 NULL
P        3.60850339       1.90955209       2.10007919       0.00000000 NULL
P        3.53176637       2.43966080       4.80398414       0.00000000 NULL
P        1.17897083       2.43966080       4.65099915       0.00000000 NULL
P        1.17639777       2.43966080       9.37849079       0.00000000 NULL
P        3.53433943       2.43966080       0.07649250       0.00000000 NULL
P        2.58633118       5.19622992       8.34289538       0.00000000 NULL
P        2.12440602       5.19622992       1.11208791       0.00000000 NULL
P        0.23096258       5.19622992       5.83957955       0.00000000 NULL
P        4.47977462       5.19622992       3.61540373       0.00000000 NULL
12
Lattice="4.7097452510525 0.0 0.0 0.0 6.495839527999806 0.0 0.0 0.0 9.450881336565079" Properties=species:S:1:pos:R:3:initial_magmoms:R:1:castep_labels:S:1 n_minim_iter=10 pbc="T T T"
P        3.45698371       1.90377438       6.82564185       0.00000000 NULL
P        1.25276154       1.90377438       2.62523949       0.00000000 NULL
P        1.10211109       1.90377438       7.35068016       0.00000000 NULL
P        3.60763416       1.90377438       2.10020118       0.00000000 NULL
P        3.53096191       2.43263127       4.80132033       0.00000000 NULL
P        1.17878334       2.43263127       4.64956101       0.00000000 NULL
P        1.17608929       2.43263127       9.37500168       0.00000000 NULL
P        3.53365596       2.43263127       0.07587966       0.00000000 NULL
P        2.58558317       5.18103924       8.34057281       0.00000000 NULL
P        2.12416208       5.18103924       1.11030852       0.00000000 NULL
P        0.23071054       5.18103924       5.83574919       0.00000000 NULL
P        4.47903471       5.18103924       3.61513215       0.00000000 NULL
12
Lattice="4.694410378018594 0.0 0.0 0.0 6.204930379985965 0.0 0.0 0.0 9.394159817562652" Properties=species:S:1:pos:R:3:initial_magmoms:R:1:castep_labels:S:1 n_minim_iter=11 pbc="T T T"
P        3.44734812       1.81593073       6.80035939       0.00000000 NULL
P        1.24706225       1.81593073       2.59380042       0.00000000 NULL
P        1.10014294       1.81593073       7.29088033       0.00000000 NULL
P        3.59426744       1.81593073       2.10327949       0.00000000 NULL
P        3.51856415       2.32566140       4.76362903       0.00000000 NULL
P        1.17584623       2.32566140       4.63053079       0.00000000 NULL
P        1.17135896       2.32566140       9.32761069       0.00000000 NULL
P        3.52305142       2.32566140       0.06654912       0.00000000 NULL
P        2.57423510       4.94962429       8.31018330       0.00000000 NULL
P        2.12017528       4.94962429       1.08397651       0.00000000 NULL
P        0.22702991       4.94962429       5.78105642       0.00000000 NULL
P        4.46738047       4.94962429       3.61310339       0.00000000 NULL
12
Lattice="4.701683887221998 0.0 0.0 0.0 5.971515010930213 0.0 0.0 0.0 9.471918613165542" Properties=species:S:1:pos:R:3:initial_magmoms:R:1:castep_labels:S:1 n_minim_iter=12 pbc="T T T"
P        3.45342304       1.74566205       6.86843208       0.00000000 NULL
P        1.24826085       1.74566205       2.60348654       0.00000000 NULL
P        1.10258109       1.74566205       7.33944584       0.00000000 NULL
P        3.59910280       1.74566205       2.13247277       0.00000000 NULL
P        3.52397939       2.24150093       4.79553407       0.00000000 NULL
P        1.17770450       2.24150093       4.67638455       0.00000000 NULL
P        1.17313744       2.24150093       9.41234385       0.00000000 NULL
P        3.52854644       2.24150093       0.05957476       0.00000000 NULL
P        2.57790159       4.76206254       8.39299148       0.00000000 NULL
P        2.12378230       4.76206254       1.07892713       0.00000000 NULL
P        0.22705964       4.76206254       5.81488644       0.00000000 NULL
P        4.47462424       4.76206254       3.65703218       0.00000000 NULL
12
Lattice="4.6987265086353895 0.0 0.0 0.0 5.829312500310092 0.0 0.0 0.0 9.382475228894268" Properties=species:S:1:pos:R:3:initial_magmoms:R:1:castep_labels:S:1 n_minim_iter=13 pbc="T T T"
P        3.45154886       1.70324397       6.80891593       0.00000000 NULL
P        1.24717765       1.70324397       2.57355930       0.00000000 NULL
P        1.10218561       1.70324397       7.26479691       0.00000000 NULL
P        3.59654090       1.70324397       2.11767832       0.00000000 NULL
P        3.52219611       2.19074573       4.74714776       0.00000000 NULL
P        1.17653040       2.19074573       4.63532747       0.00000000 NULL
P        1.17283285       2.19074573       9.32656508       0.00000000 NULL
P        3.52589366       2.19074573       0.05591015       0.00000000 NULL
P        2.57667207       4.64688638       8.32218067       0.00000000 NULL
P        2.12205444       4.64688638       1.06029456       0.00000000 NULL
P        0.22730882       4.64688638       5.75153217       0.00000000 NULL
P        4.47141769       4.64688638       3.63094306       0.00000000 NULL
12
Lattice="4.701182567496836 0.0 0.0 0.0 5.766923647561855 0.0 0.0 0.0 9.434839127816835" Properties=species:S:1:pos:R:3:initial_magmoms:R:1:castep_labels:S:1 n_minim_iter=14 pbc="T T T"
P        3.45340555       1.68445916       6.84986452       0.00000000 NULL
P        1.24777702       1.68445916       2.58497460       0.00000000 NULL
P        1.10281426       1.68445916       7.30239417       0.00000000 NULL
P        3.59836831       1.68445916       2.13244496       0.00000000 NULL
P        3.52426508       2.16885574       4.77169425       0.00000000 NULL
P        1.17691749       2.16885574       4.66314487       0.00000000 NULL
P        1.17367380       2.16885574       9.38056444       0.00000000 NULL
P        3.52750877       2.16885574       0.05427469       0.00000000 NULL
P        2.57857673       4.59615153       8.37177025       0.00000000 NULL
P        2.12260583       4.59615153       1.06306888       0.00000000 NULL
P        0.22798545       4.59615153       5.78048844       0.00000000 NULL
P        4.47319712       4.59615153       3.65435069       0.00000000 NULL
12
Lattice="4.702125900407357 0.0 0.0 0.0 5.70404047549701 0.0 0.0 0.0 9.440721350505564" Properties=species:S:1:pos:R:3:initial_magmoms:R:1:castep_labels:S:1 n_minim_iter=15 pbc="T T T"
P        3.45413924       1.66565169       6.85656913       0.00000000 NULL
P        1.24798666       1.66565169       2.58415222       0.00000000 NULL
P        1.10307629       1.66565169       7.30451289       0.00000000 NULL
P        3.59904961       1.66565169       2.13620846       0.00000000 NULL
P        3.52522276       2.14668275       4.77318097       0.00000000 NULL
P        1.17690314       2.14668275       4.66754038       0.00000000 NULL
P        1.17415981       2.14668275       9.38790106       0.00000000 NULL
P        3.52796609       2.14668275       0.05282029       0.00000000 NULL
P        2.57964131       4.54499807       8.38007964       0.00000000 NULL
P        2.12248459       4.54499807       1.06064171       0.00000000 NULL
P        0.22857836       4.54499807       5.78100238       0.00000000 NULL
P        4.47354754       4.54499807       3.65971897       0.00000000 NULL
12
Lattice="4.705599867937857 0.0 0.0 0.0 5.594838192534382 0.0 0.0 0.0 9.456238524984895" Properties=species:S:1:pos:R:3:initial_magmoms:R:1:castep_labels:S:1 n_minim_iter=16 pbc="T T T"
P        3.45671194       1.63301391       6.87200879       0.00000000 NULL
P        1.24888793       1.63301391       2.58422974       0.00000000 NULL
P        1.10391200       1.63301391       7.31234900       0.00000000 NULL
P        3.60168786       1.63301391       2.14388953       0.00000000 NULL
P        3.52829095       2.10826271       4.77848692       0.00000000 NULL
P        1.17730892       2.10826271       4.67775161       0.00000000 NULL
P        1.17549101       2.10826271       9.40587087       0.00000000 NULL
P        3.53010885       2.10826271       0.05036765       0.00000000 NULL
P        2.58265796       4.45605706       8.39907752       0.00000000 NULL
P        2.12294191       4.45605706       1.05716100       0.00000000 NULL
P        0.22985802       4.45605706       5.78528027       0.00000000 NULL
P        4.47574185       4.45605706       3.67095826       0.00000000 NULL
12
Lattice="4.707418043688097 0.0 0.0 0.0 5.56817355422915 0.0 0.0 0.0 9.460450098254698" Properties=species:S:1:pos:R:3:initial_magmoms:R:1:castep_labels:S:1 n_minim_iter=17 pbc="T T T"
P        3.45802785       1.62505901       6.87601764       0.00000000 NULL
P        1.24939019       1.62505901       2.58443246       0.00000000 NULL
P        1.10431883       1.62505901       7.31465751       0.00000000 NULL
P        3.60309921       1.62505901       2.14579259       0.00000000 NULL
P        3.52976781       2.09889679       4.78005287       0.00000000 NULL
P        1.17765023       2.09889679       4.68039723       0.00000000 NULL
P        1.17605879       2.09889679       9.41062228       0.00000000 NULL
P        3.53135926       2.09889679       0.04982782       0.00000000 NULL
P        2.58398956       4.43430993       8.40397434       0.00000000 NULL
P        2.12342849       4.43430993       1.05647576       0.00000000 NULL
P        0.23028054       4.43430993       5.78670081       0.00000000 NULL
P        4.47713751       4.43430993       3.67374929       0.00000000 NULL
12
Lattice="4.7277512726178115 0.0 0.0 0.0 5.293444644790268 0.0 0.0 0.0 9.50551694159251" Properties=species:S:1:pos:R:3:initial_magmoms:R:1:castep_labels:S:1 n_minim_iter=18 pbc="T T T"
P        3.47268580       1.54316519       6.91863883       0.00000000 NULL
P        1.25506547       1.54316519       2.58687811       0.00000000 NULL
P        1.10881016       1.54316519       7.33963658       0.00000000 NULL
P        3.61894111       1.54316519       2.16588036       0.00000000 NULL
P        3.54620740       2.00222021       4.79702451       0.00000000 NULL
P        1.18154388       2.00222021       4.70849243       0.00000000 NULL
P        1.18233176       2.00222021       9.46125090       0.00000000 NULL
P        3.54541951       2.00222021       0.04426604       0.00000000 NULL
P        2.59884082       4.21035848       8.45592307       0.00000000 NULL
P        2.12891045       4.21035848       1.04959388       0.00000000 NULL
P        0.23496518       4.21035848       5.80235235       0.00000000 NULL
P        4.49278609       4.21035848       3.70316460       0.00000000 NULL
12
Lattice="4.740570425332187 0.0 0.0 0.0 5.001049530105996 0.0 0.0 0.0 9.590416902738523" Properties=species:S:1:pos:R:3:initial_magmoms:R:1:castep_labels:S:1 n_minim_iter=19 pbc="T T T"
P        3.48179895       1.45647273       6.98886361       0.00000000 NULL
P        1.25877148       1.45647273       2.60155330       0.00000000 NULL
P        1.11151374       1.45647273       7.39676175       0.00000000 NULL
P        3.62905669       1.45647273       2.19365516       0.00000000 NULL
P        3.55646617       1.89810831       4.83561387       0.00000000 NULL
P        1.18410426       1.89810831       4.75480303       0.00000000 NULL
P        1.18618096       1.89810831       9.55001148       0.00000000 NULL
P        3.55438947       1.89810831       0.04040542       0.00000000 NULL
P        2.61071365       3.97275718       8.53901373       0.00000000 NULL
P        2.12985678       3.97275718       1.05140317       0.00000000 NULL
P        0.24042844       3.97275718       5.84661162       0.00000000 NULL
P        4.50014199       3.97275718       3.74380528       0.00000000 NULL
12
Lattice="4.805948845984033 0.0 0.0 0.0 4.191041033079017 0.0 0.0 0.0 9.823121058621402" Properties=species:S:1:pos:R:3:initial_magmoms:R:1:castep_labels:S:1 n_minim_iter=20 pbc="T T T"
P        3.53149728       1.21819388       7.17831080       0.00000000 NULL
P        1.27445156       1.21819388       2.64481025       0.00000000 NULL
P        1.12852286       1.21819388       7.55637078       0.00000000 NULL
P        3.67742599       1.21819388       2.26675028       0.00000000 NULL
P        3.60187220       1.60507242       4.94609496       0.00000000 NULL
P        1.20407665       1.60507242       4.87702610       0.00000000 NULL
P        1.19889777       1.60507242       9.78858663       0.00000000 NULL
P        3.60705107       1.60507242       0.03453443       0.00000000 NULL
P        2.66136590       3.31727981       8.75756829       0.00000000 NULL
P        2.14458294       3.31727981       1.06555277       0.00000000 NULL
P        0.25839148       3.31727981       5.97711330       0.00000000 NULL
P        4.54755737       3.31727981       3.84600776       0.00000000 NULL
12
Lattice="5.030275581983013 0.0 0.0 0.0 4.537813753951464 0.0 0.0 0.0 10.485036852622237" Properties=species:S:1:pos:R:3:initial_magmoms:R:1:castep_labels:S:1 n_minim_iter=21 pbc="T T T"
P        3.69673741       1.31940245       7.66254311       0.00000000 NULL
P        1.33353818       1.31940245       2.82249374       0.00000000 NULL
P        1.18159961       1.31940245       8.06501217       0.00000000 NULL
P        3.84867597       1.31940245       2.42002469       0.00000000 NULL
P        3.75598908       1.73802847       5.28199545       0.00000000 NULL
P        1.27428650       1.73802847       5.20304140       0.00000000 NULL
P        1.24085129       1.73802847      10.44555983       0.00000000 NULL
P        3.78942429       1.73802847       0.03947702       0.00000000 NULL
P        2.78866541       3.59119273       9.34294013       0.00000000 NULL
P        2.24161018       3.59119273       1.14209672       0.00000000 NULL
P        0.27352761       3.59119273       6.38461515       0.00000000 NULL
P        4.75674797       3.59119273       4.10042170       0.00000000 NULL
12
Lattice="4.867806933025599 0.0 0.0 0.0 4.420551458430307 0.0 0.0 0.0 9.968738276881954" Properties=species:S:1:pos:R:3:initial_magmoms:R:1:castep_labels:S:1 n_minim_iter=22 pbc="T T T"
P        3.57752782       1.28564082       7.28465617       0.00000000 NULL
P        1.29027911       1.28564082       2.68408210       0.00000000 NULL
P        1.14362435       1.28564082       7.66845124       0.00000000 NULL
P        3.72418258       1.28564082       2.30028704       0.00000000 NULL
P        3.63632172       1.69394205       5.02402666       0.00000000 NULL
P        1.23148522       1.69394205       4.94471162       0.00000000 NULL
P        1.20241825       1.69394205       9.92908076       0.00000000 NULL
P        3.66538868       1.69394205       0.03965752       0.00000000 NULL
P        2.69810711       3.49723275       8.88706143       0.00000000 NULL
P        2.16969982       3.49723275       1.08167685       0.00000000 NULL
P        0.26420365       3.49723275       6.06604599       0.00000000 NULL
P        4.60360329       3.49723275       3.90269229       0.00000000 NULL
12
Lattice="4.830462144645284 0.0 0.0 0.0 4.436153646477264 0.0 0.0 0.0 9.94053064504077" Properties=species:S:1:pos:R:3:initial_magmoms:R:1:castep_labels:S:1 n_minim_iter=23 pbc="T T T"
P        3.55051264       1.29035596       7.26404075       0.00000000 NULL
P        1.27994950       1.29035596       2.67648990       0.00000000 NULL
P        1.13528157       1.29035596       7.64675522       0.00000000 NULL
P        3.69518057       1.29035596       2.29377543       0.00000000 NULL
P        3.60630411       1.70041788       5.01107890       0.00000000 NULL
P        1.22415804       1.70041788       4.92945175       0.00000000 NULL
P        1.19107304       1.70041788       9.89971707       0.00000000 NULL
P        3.63938911       1.70041788       0.04081357       0.00000000 NULL
P        2.67786986       3.50890149       8.86231041       0.00000000 NULL
P        2.15259229       3.50890149       1.07822023       0.00000000 NULL
P        0.26263878       3.50890149       6.04848555       0.00000000 NULL
P        4.56782336       3.50890149       3.89204509       0.00000000 NULL
12
Lattice="4.822658237241644 0.0 0.0 0.0 4.459991529190529 0.0 0.0 0.0 9.918242841884194" Properties=species:S:1:pos:R:3:initial_magmoms:R:1:castep_labels:S:1 n_minim_iter=24 pbc="T T T"
P        3.54521019       1.29746823       7.24774073       0.00000000 NULL
P        1.27744805       1.29746823       2.67050211       0.00000000 NULL
P        1.13388107       1.29746823       7.62962353       0.00000000 NULL
P        3.68877717       1.29746823       2.28861931       0.00000000 NULL
P        3.59807794       1.71010721       5.00115459       0.00000000 NULL
P        1.22458029       1.71010721       4.91708826       0.00000000 NULL
P        1.18674882       1.71010721       9.87620968       0.00000000 NULL
P        3.63590941       1.71010721       0.04203316       0.00000000 NULL
P        2.67416010       3.52702619       8.84268394       0.00000000 NULL
P        2.14849814       3.52702619       1.07555890       0.00000000 NULL
P        0.26283098       3.52702619       6.03468032       0.00000000 NULL
P        4.55982726       3.52702619       3.88356252       0.00000000 NULL
12
Lattice="4.800959113258399 0.0 0.0 0.0 4.535207382985434 0.0 0.0 0.0 9.814734095822137" Properties=species:S:1:pos:R:3:initial_magmoms:R:1:castep_labels:S:1 n_minim_iter=25 pbc="T T T"
P        3.53086062       1.31996638       7.17228167       0.00000000 NULL
P        1.27009850       1.31996638       2.64245243       0.00000000 NULL
P        1.13038106       1.31996638       7.54981948       0.00000000 NULL
P        3.67057805       1.31996638       2.26491462       0.00000000 NULL
P        3.57345293       1.74119594       4.95353454       0.00000000 NULL
P        1.22750619       1.74119594       4.86119956       0.00000000 NULL
P        1.17297337       1.74119594       9.76856660       0.00000000 NULL
P        3.62798574       1.74119594       0.04616749       0.00000000 NULL
P        2.66460362       3.58364258       8.75118499       0.00000000 NULL
P        2.13635549       3.58364258       1.06354910       0.00000000 NULL
P        0.26412407       3.58364258       5.97091615       0.00000000 NULL
P        4.53683504       3.58364258       3.84381794       0.00000000 NULL
