22
Lattice="6.120180000000002 2.7167839774545165e-17 0.0 -0.9374015464131268 7.220858151444489 0.0 0.0 0.0 11.283999999999999" Properties=species:S:1:pos:R:3:initial_magmoms:R:1:castep_labels:S:1 n_minim_iter=1 pbc="T T T"
P        0.84315694       6.17827238       8.03846884       0.00000000 NULL
P        4.33962151       1.04258577       8.03846884       0.00000000 NULL
P        1.66316222       3.98326437       1.98197818       0.00000000 NULL
P        3.51961623       3.23759378       1.98197818       0.00000000 NULL
P        2.95526187       1.84977301       0.58216526       0.00000000 NULL
P        2.22751658       5.37108514       0.58216526       0.00000000 NULL
P        4.64027749       3.79566214       5.57241496       0.00000000 NULL
P        0.54250096       3.42519601       5.57241496       0.00000000 NULL
P        2.39462131       6.23337475       4.88135459       0.00000000 NULL
P        2.78815714       0.98748340       4.88135459       0.00000000 NULL
P        1.82801041       4.30220895       7.68064756       0.00000000 NULL
P        3.35476804       2.91864920       7.68064756       0.00000000 NULL
P        1.04951734       6.92822060       1.36170009       0.00000000 NULL
P        4.13326111       0.29263755       1.36170009       0.00000000 NULL
P       -0.10899266       4.58497270       7.18597054       0.00000000 NULL
P        5.29177111       2.63588545       7.18597054       0.00000000 NULL
P        4.02921566       1.50145903       2.98825935       0.00000000 NULL
P        1.15356279       5.71939912       2.98825935       0.00000000 NULL
P        1.20749348       2.87996923       3.60296992       0.00000000 NULL
P        3.97528497       4.34088892       3.60296992       0.00000000 NULL
P        2.01957090       1.12794426       3.02071777       0.00000000 NULL
P        3.16320755       6.09291389       3.02071777       0.00000000 NULL
22
Lattice="6.162584019576529 -0.006296002541304273 0.0 -0.9513246883463824 7.284436860685711 0.0 0.0 0.0 11.368510576781944" Properties=species:S:1:pos:R:3:initial_magmoms:R:1:castep_labels:S:1 n_minim_iter=2 pbc="T T T"
P        0.84274155       6.23124797       8.09878860       0.00000000 NULL
P        4.36851778       1.04689288       8.09878860       0.00000000 NULL
P        1.67013535       4.01593956       1.99658412       0.00000000 NULL
P        3.54112397       3.26220130       1.99658412       0.00000000 NULL
P        2.97363917       1.86276098       0.58601482       0.00000000 NULL
P        2.23762016       5.41537988       0.58601482       0.00000000 NULL
P        4.66823607       3.82387429       5.61403305       0.00000000 NULL
P        0.54302325       3.45426656       5.61403305       0.00000000 NULL
P        2.40473998       6.28476345       4.91823269       0.00000000 NULL
P        2.80651935       0.99337741       4.91823269       0.00000000 NULL
P        1.83638054       4.33774682       7.73825582       0.00000000 NULL
P        3.37487879       2.94039404       7.73825582       0.00000000 NULL
P        1.04932387       6.98739091       1.37152049       0.00000000 NULL
P        4.16193546       0.29074995       1.37152049       0.00000000 NULL
P       -0.11479935       4.62515326       7.23988414       0.00000000 NULL
P        5.32605868       2.65298760       7.23988414       0.00000000 NULL
P        4.05599923       1.51039675       3.01108497       0.00000000 NULL
P        1.15526010       5.76774411       3.01108497       0.00000000 NULL
P        1.21255197       2.90374871       3.63017824       0.00000000 NULL
P        3.99870736       4.37439214       3.63017824       0.00000000 NULL
P        2.03203456       1.13550568       3.04329865       0.00000000 NULL
P        3.17922477       6.14263517       3.04329865       0.00000000 NULL
22
Lattice="6.596027237394339 -0.0691722830920028 0.0 -1.0918975220884815 7.944125622414763 0.0 0.0 0.0 12.247081166599358" Properties=species:S:1:pos:R:3:initial_magmoms:R:1:castep_labels:S:1 n_minim_iter=3 pbc="T T T"
P        0.84010840       6.78160511       8.72588742       0.00000000 NULL
P        4.66402131       1.09334823       8.72588742       0.00000000 NULL
P        1.74210603       4.35583716       2.14837330       0.00000000 NULL
P        3.76202368       3.51911618       2.14837330       0.00000000 NULL
P        3.16185875       1.99878323       0.62568683       0.00000000 NULL
P        2.34227096       5.87617011       0.62568683       0.00000000 NULL
P        4.95485892       4.11865739       6.04661844       0.00000000 NULL
P        0.54927079       3.75629595       6.04661844       0.00000000 NULL
P        2.50962938       6.81928470       5.30168721       0.00000000 NULL
P        2.99450034       1.05566864       5.30168721       0.00000000 NULL
P        1.92290896       4.70773852       8.33723904       0.00000000 NULL
P        3.58122075       3.16721482       8.33723904       0.00000000 NULL
P        1.04883876       7.60212048       1.47349208       0.00000000 NULL
P        4.45529095       0.27283286       1.47349208       0.00000000 NULL
P       -0.17320064       5.04247964       7.80041105       0.00000000 NULL
P        5.67733035       2.83247370       7.80041105       0.00000000 NULL
P        4.33029808       1.60487536       3.24851133       0.00000000 NULL
P        1.17383163       6.27007798       3.24851133       0.00000000 NULL
P        1.26474403       3.15112909       3.91306936       0.00000000 NULL
P        4.23938568       4.72382425       3.91306936       0.00000000 NULL
P        2.15941701       1.21489998       3.27826562       0.00000000 NULL
P        3.34471270       6.66005336       3.27826562       0.00000000 NULL
22
Lattice="6.693407377429612 -0.04058526951191455 0.0 -1.0730845989103655 8.083796122042529 0.0 0.0 0.0 12.536466792171032" Properties=species:S:1:pos:R:3:initial_magmoms:R:1:castep_labels:S:1 n_minim_iter=4 pbc="T T T"
P        0.88365569       6.90845729       8.93209898       0.00000000 NULL
P        4.73666708       1.13475356       8.93209898       0.00000000 NULL
P        1.78520110       4.44245901       2.19849547       0.00000000 NULL
P        3.83512167       3.60075184       2.19849547       0.00000000 NULL
P        3.21691845       2.04898185       0.63812514       0.00000000 NULL
P        2.40340433       5.99422900       0.63812514       0.00000000 NULL
P        5.04608345       4.21549072       6.18911446       0.00000000 NULL
P        0.57423932       3.82772013       6.18911446       0.00000000 NULL
P        2.57613847       6.95535032       5.42756438       0.00000000 NULL
P        3.04418430       1.08786053       5.42756438       0.00000000 NULL
P        1.97115222       4.80519113       8.53492645       0.00000000 NULL
P        3.64917056       3.23801973       8.53492645       0.00000000 NULL
P        1.09736259       7.74479728       1.50678982       0.00000000 NULL
P        4.52296018       0.29841357       1.50678982       0.00000000 NULL
P       -0.15424442       5.13515147       7.98511699       0.00000000 NULL
P        5.77456720       2.90805938       7.98511699       0.00000000 NULL
P        4.40249712       1.65449201       3.32668709       0.00000000 NULL
P        1.21782566       6.38871884       3.32668709       0.00000000 NULL
P        1.29589146       3.21367328       4.00571014       0.00000000 NULL
P        4.32443131       4.82953757       4.00571014       0.00000000 NULL
P        2.19479798       1.24709775       3.35730821       0.00000000 NULL
P        3.42552480       6.79611310       3.35730821       0.00000000 NULL
22
Lattice="6.720669965789415 0.011971748460259625 0.0 -1.0152512052598066 8.106661492314105 0.0 0.0 0.0 12.715134265303636" Properties=species:S:1:pos:R:3:initial_magmoms:R:1:castep_labels:S:1 n_minim_iter=5 pbc="T T T"
P        0.94200675       6.94063069       9.05897307       0.00000000 NULL
P        4.76341200       1.17800255       9.05897307       0.00000000 NULL
P        1.82508031       4.47339355       2.22943558       0.00000000 NULL
P        3.88033845       3.64523969       2.22943558       0.00000000 NULL
P        3.24574023       2.08151132       0.64559078       0.00000000 NULL
P        2.45967853       6.03712192       0.64559078       0.00000000 NULL
P        5.09989186       4.27054146       6.27727291       0.00000000 NULL
P        0.60552690       3.84809178       6.27727291       0.00000000 NULL
P        2.63946799       7.00385963       5.50479734       0.00000000 NULL
P        3.06595077       1.11477361       5.50479734       0.00000000 NULL
P        2.01452323       4.84364343       8.65735561       0.00000000 NULL
P        3.69089553       3.27498981       8.65735561       0.00000000 NULL
P        1.16199441       7.78247286       1.52692485       0.00000000 NULL
P        4.54342435       0.33616038       1.52692485       0.00000000 NULL
P       -0.11546883       5.15543850       8.09917639       0.00000000 NULL
P        5.82088759       2.96319474       8.09917639       0.00000000 NULL
P        4.43348508       1.69637045       3.37492492       0.00000000 NULL
P        1.27193368       6.42226279       3.37492492       0.00000000 NULL
P        1.32458229       3.23576269       4.06230975       0.00000000 NULL
P        4.38083647       4.88287055       4.06230975       0.00000000 NULL
P        2.21192036       1.26994443       3.40772337       0.00000000 NULL
P        3.49349840       6.84868880       3.40772337       0.00000000 NULL
22
Lattice="6.7100634483638695 0.07140475690018526 0.0 -0.9435049675192362 8.067732719382466 0.0 0.0 0.0 12.83788378854227" Properties=species:S:1:pos:R:3:initial_magmoms:R:1:castep_labels:S:1 n_minim_iter=6 pbc="T T T"
P        1.00224563       6.92099380       9.14562449       0.00000000 NULL
P        4.76431285       1.21814368       9.14562449       0.00000000 NULL
P        1.85888788       4.47281346       2.25063587       0.00000000 NULL
P        3.90767060       3.66632401       2.25063587       0.00000000 NULL
P        3.25858971       2.10169334       0.65052253       0.00000000 NULL
P        2.50796877       6.03744414       0.65052253       0.00000000 NULL
P        5.12984151       4.29853902       6.33801915       0.00000000 NULL
P        0.63671697       3.84059845       6.33801915       0.00000000 NULL
P        2.69490515       7.00301076       5.55733841       0.00000000 NULL
P        3.07165333       1.13612672       5.55733841       0.00000000 NULL
P        2.05088702       4.84912923       8.74195956       0.00000000 NULL
P        3.71567146       3.29000825       8.74195956       0.00000000 NULL
P        1.22858120       7.76260749       1.54026775       0.00000000 NULL
P        4.53797728       0.37652998       1.54026775       0.00000000 NULL
P       -0.07057997       5.13710590       8.17743422       0.00000000 NULL
P        5.83713844       3.00203157       8.17743422       0.00000000 NULL
P        4.44066162       1.73006678       3.40799236       0.00000000 NULL
P        1.32589685       6.40907070       3.40799236       0.00000000 NULL
P        1.34886036       3.23517240       4.10042473       0.00000000 NULL
P        4.41769811       4.90396507       4.10042473       0.00000000 NULL
P        2.21811292       1.28578670       3.44441627       0.00000000 NULL
P        3.54844556       6.85335077       3.44441627       0.00000000 NULL
22
Lattice="6.684984390145024 0.21880264698879223 0.0 -0.7657571881877516 7.9701602520110475 0.0 0.0 0.0 13.19699083687752" Properties=species:S:1:pos:R:3:initial_magmoms:R:1:castep_labels:S:1 n_minim_iter=7 pbc="T T T"
P        1.15258134       6.86983444       9.39836358       0.00000000 NULL
P        4.76664586       1.31912845       9.39836358       0.00000000 NULL
P        1.94033734       4.47037005       2.31234135       0.00000000 NULL
P        3.97888985       3.71859285       2.31234135       0.00000000 NULL
P        3.29118548       2.15142171       0.66473595       0.00000000 NULL
P        2.62804172       6.03754118       0.66473595       0.00000000 NULL
P        5.20605199       4.36644746       6.51591655       0.00000000 NULL
P        0.71317521       3.82251544       6.51591655       0.00000000 NULL
P        2.83258828       7.00061540       5.71026781       0.00000000 NULL
P        3.08663892       1.18834750       5.71026781       0.00000000 NULL
P        2.14001457       4.86720537       8.99056147       0.00000000 NULL
P        3.77921262       3.32175752       8.99056147       0.00000000 NULL
P        1.39508532       7.71098439       1.57856254       0.00000000 NULL
P        4.52414188       0.47797851       1.57856254       0.00000000 NULL
P        0.04067355       5.09238431       8.40578873       0.00000000 NULL
P        5.87855365       3.09657859       8.40578873       0.00000000 NULL
P        4.45846671       1.81329108       3.50415809       0.00000000 NULL
P        1.46076049       6.37567182       3.50415809       0.00000000 NULL
P        1.40740173       3.23458439       4.21041236       0.00000000 NULL
P        4.51182546       4.95437851       4.21041236       0.00000000 NULL
P        2.23376418       1.32524862       3.55598673       0.00000000 NULL
P        3.68546302       6.86371428       3.55598673       0.00000000 NULL
22
Lattice="6.688045156102757 0.17397977768730064 0.0 -0.8191099895610425 8.031191394859304 0.0 0.0 0.0 13.197981371278663" Properties=species:S:1:pos:R:3:initial_magmoms:R:1:castep_labels:S:1 n_minim_iter=8 pbc="T T T"
P        1.10975492       6.90639104       9.39662370       0.00000000 NULL
P        4.75918024       1.29878013       9.39662370       0.00000000 NULL
P        1.90490437       4.48796762       2.31153360       0.00000000 NULL
P        3.96403079       3.71720355       2.31153360       0.00000000 NULL
P        3.27971524       2.14384300       0.66337466       0.00000000 NULL
P        2.58921992       6.06132817       0.66337466       0.00000000 NULL
P        5.18303206       4.35791545       6.51745130       0.00000000 NULL
P        0.68590310       3.84725572       6.51745130       0.00000000 NULL
P        2.78703800       7.03101810       5.70770836       0.00000000 NULL
P        3.08189716       1.17415307       5.70770836       0.00000000 NULL
P        2.10477794       4.89895761       8.99466688       0.00000000 NULL
P        3.76415722       3.30621356       8.99466688       0.00000000 NULL
P        1.34820771       7.75223831       1.57606412       0.00000000 NULL
P        4.52072745       0.45293286       1.57606412       0.00000000 NULL
P        0.00635829       5.13107942       8.40441538       0.00000000 NULL
P        5.86257687       3.07409175       8.40441538       0.00000000 NULL
P        4.44709088       1.79460661       3.50292830       0.00000000 NULL
P        1.42184429       6.41056456       3.50292830       0.00000000 NULL
P        1.38203634       3.25162914       4.20615370       0.00000000 NULL
P        4.48689882       4.95354203       4.20615370       0.00000000 NULL
P        2.22652097       1.31977099       3.57029186       0.00000000 NULL
P        3.64241419       6.88540018       3.57029186       0.00000000 NULL
22
Lattice="6.661360819923105 0.17935630332659014 0.0 -0.8086794030441887 7.986352422831425 0.0 0.0 0.0 13.167475931917007" Properties=species:S:1:pos:R:3:initial_magmoms:R:1:castep_labels:S:1 n_minim_iter=9 pbc="T T T"
P        1.11239562       6.86777788       9.37376099       0.00000000 NULL
P        4.74028579       1.29793085       9.37376099       0.00000000 NULL
P        1.89899488       4.46510005       2.30587317       0.00000000 NULL
P        3.95368653       3.70060868       2.30587317       0.00000000 NULL
P        3.26898418       2.13502570       0.66149623       0.00000000 NULL
P        2.58369723       6.03068303       0.66149623       0.00000000 NULL
P        5.16716949       4.33750584       6.50285772       0.00000000 NULL
P        0.68551192       3.82820289       6.50285772       0.00000000 NULL
P        2.78150965       6.99602972       5.69322482       0.00000000 NULL
P        3.07117176       1.16967900       5.69322482       0.00000000 NULL
P        2.09879341       4.87965598       8.97535398       0.00000000 NULL
P        3.75388800       3.28605274       8.97535398       0.00000000 NULL
P        1.35160756       7.70932773       1.57138435       0.00000000 NULL
P        4.50107385       0.45638099       1.57138435       0.00000000 NULL
P        0.01075647       5.10429938       8.38407801       0.00000000 NULL
P        5.84192495       3.06140934       8.38407801       0.00000000 NULL
P        4.42973493       1.78903579       3.49397440       0.00000000 NULL
P        1.42294649       6.37667293       3.49397440       0.00000000 NULL
P        1.37748779       3.23636601       4.19440915       0.00000000 NULL
P        4.47519362       4.92934271       4.19440915       0.00000000 NULL
P        2.21846249       1.31528880       3.56801748       0.00000000 NULL
P        3.63421893       6.85041993       3.56801748       0.00000000 NULL
22
Lattice="6.671740229386634 0.17562205061519295 0.0 -0.8146750083389043 8.005913941118415 0.0 0.0 0.0 13.197465100325338" Properties=species:S:1:pos:R:3:initial_magmoms:R:1:castep_labels:S:1 n_minim_iter=10 pbc="T T T"
P        1.11061741       6.88283558       9.39457503       0.00000000 NULL
P        4.74644781       1.29870041       9.39457503       0.00000000 NULL
P        1.89784123       4.47443194       2.31082260       0.00000000 NULL
P        3.95922399       3.70710405       2.31082260       0.00000000 NULL
P        3.27304743       2.13808524       0.66250025       0.00000000 NULL
P        2.58401779       6.04345075       0.66250025       0.00000000 NULL
P        5.17308250       4.34384889       6.51783249       0.00000000 NULL
P        0.68398272       3.83768710       6.51783249       0.00000000 NULL
P        2.78142041       7.01129413       5.70567254       0.00000000 NULL
P        3.07564481       1.17024186       5.70567254       0.00000000 NULL
P        2.09831245       4.89310141       8.99671056       0.00000000 NULL
P        3.75875276       3.28843458       8.99671056       0.00000000 NULL
P        1.35004449       7.72603267       1.57425274       0.00000000 NULL
P        4.50702073       0.45550332       1.57425274       0.00000000 NULL
P        0.00747207       5.11737560       8.40265182       0.00000000 NULL
P        5.84959315       3.06416039       8.40265182       0.00000000 NULL
P        4.43523410       1.79056464       3.50156357       0.00000000 NULL
P        1.42183112       6.39097135       3.50156357       0.00000000 NULL
P        1.37646493       3.24410392       4.20286983       0.00000000 NULL
P        4.48060029       4.93743207       4.20286983       0.00000000 NULL
P        2.22081833       1.31725312       3.57961478       0.00000000 NULL
P        3.63624689       6.86428287       3.57961478       0.00000000 NULL
22
Lattice="6.669763139498772 0.1745308481717088 0.0 -0.8156596347617598 8.005489749800775 0.0 0.0 0.0 13.205472019801764" Properties=species:S:1:pos:R:3:initial_magmoms:R:1:castep_labels:S:1 n_minim_iter=11 pbc="T T T"
P        1.10976476       6.88143956       9.39968656       0.00000000 NULL
P        4.74433874       1.29858104       9.39968656       0.00000000 NULL
P        1.89525162       4.47371831       2.31196967       0.00000000 NULL
P        3.95885188       3.70630228       2.31196967       0.00000000 NULL
P        3.27202616       2.13737950       0.66254477       0.00000000 NULL
P        2.58207734       6.04264110       0.66254477       0.00000000 NULL
P        5.17134991       4.34189603       6.52200871       0.00000000 NULL
P        0.68275359       3.83812456       6.52200871       0.00000000 NULL
P        2.77919086       7.01075754       5.70853169       0.00000000 NULL
P        3.07491265       1.16926305       5.70853169       0.00000000 NULL
P        2.09597888       4.89557774       9.00306305       0.00000000 NULL
P        3.75812462       3.28444285       9.00306305       0.00000000 NULL
P        1.34949663       7.72435730       1.57455425       0.00000000 NULL
P        4.50460688       0.45566329       1.57455425       0.00000000 NULL
P        0.00648702       5.11786932       8.40718755       0.00000000 NULL
P        5.84761648       3.06215128       8.40718755       0.00000000 NULL
P        4.43313590       1.78976263       3.50321396       0.00000000 NULL
P        1.42096761       6.39025796       3.50321396       0.00000000 NULL
P        1.37435114       3.24448530       4.20427199       0.00000000 NULL
P        4.47975236       4.93553530       4.20427199       0.00000000 NULL
P        2.21967251       1.31709030       3.58531099       0.00000000 NULL
P        3.63443099       6.86293030       3.58531099       0.00000000 NULL
22
Lattice="6.6499411993502475 0.1559503056942422 0.0 -0.8345457368467538 8.016270547185854 0.0 0.0 0.0 13.322126361286635" Properties=species:S:1:pos:R:3:initial_magmoms:R:1:castep_labels:S:1 n_minim_iter=12 pbc="T T T"
P        1.09489930       6.87669491       9.47513349       0.00000000 NULL
P        4.72049616       1.29552594       9.47513349       0.00000000 NULL
P        1.86081206       4.47185562       2.32898892       0.00000000 NULL
P        3.95458340       3.70036523       2.32898892       0.00000000 NULL
P        3.26038508       2.13017142       0.66369812       0.00000000 NULL
P        2.55501038       6.04204943       0.66369812       0.00000000 NULL
P        5.15023905       4.32127043       6.58252477       0.00000000 NULL
P        0.66515641       3.85095042       6.58252477       0.00000000 NULL
P        2.74798189       7.01539114       5.75134630       0.00000000 NULL
P        3.06741357       1.15682971       5.75134630       0.00000000 NULL
P        2.06449311       4.93557496       9.09431013       0.00000000 NULL
P        3.75090235       3.23664589       9.09431013       0.00000000 NULL
P        1.33860064       7.71666012       1.57997846       0.00000000 NULL
P        4.47679482       0.45556073       1.57997846       0.00000000 NULL
P       -0.00989967       5.13429185       8.47385858       0.00000000 NULL
P        5.82529513       3.03792900       8.47385858       0.00000000 NULL
P        4.40873399       1.77979020       3.52768684       0.00000000 NULL
P        1.40666147       6.39243065       3.52768684       0.00000000 NULL
P        1.34586573       3.25495722       4.22636936       0.00000000 NULL
P        4.46952973       4.91726363       4.22636936       0.00000000 NULL
P        2.20565165       1.31593715       3.66326726       0.00000000 NULL
P        3.60974381       6.85628370       3.66326726       0.00000000 NULL
22
Lattice="6.621115707419912 0.02074948790088609 0.0 -0.9896465454068781 8.137894782003094 0.0 0.0 0.0 13.466452555483434" Properties=species:S:1:pos:R:3:initial_magmoms:R:1:castep_labels:S:1 n_minim_iter=13 pbc="T T T"
P        0.96119107       6.94604011       9.56609529       0.00000000 NULL
P        4.67027808       1.21260416       9.56609529       0.00000000 NULL
P        1.74576227       4.48896407       2.34715913       0.00000000 NULL
P        3.88570689       3.66968020       2.34715913       0.00000000 NULL
P        3.21697241       2.09190440       0.66434253       0.00000000 NULL
P        2.41449675       6.06673987       0.66434253       0.00000000 NULL
P        5.04737931       4.24819548       6.66050540       0.00000000 NULL
P        0.58408984       3.91044879       6.66050540       0.00000000 NULL
P        2.58834073       7.05662880       5.80632719       0.00000000 NULL
P        3.04312843       1.10201547       5.80632719       0.00000000 NULL
P        1.94120164       5.02535171       9.21409892       0.00000000 NULL
P        3.69026751       3.13329256       9.21409892       0.00000000 NULL
P        1.21413975       7.76188415       1.58449752       0.00000000 NULL
P        4.41732940       0.39676012       1.58449752       0.00000000 NULL
P       -0.11960157       5.22034609       8.54410163       0.00000000 NULL
P        5.75107073       2.93829818       8.54410163       0.00000000 NULL
P        4.34349743       1.71535313       3.54452887       0.00000000 NULL
P        1.28797172       6.44329114       3.54452887       0.00000000 NULL
P        1.24473202       3.29107854       4.24281135       0.00000000 NULL
P        4.38673714       4.86756572       4.24281135       0.00000000 NULL
P        2.15743960       1.29537908       3.79251845       0.00000000 NULL
P        3.47402956       6.86326519       3.79251845       0.00000000 NULL
22
Lattice="6.538408334956109 0.11264461154108794 0.0 -0.8685566965033015 7.860105104634498 0.0 0.0 0.0 13.41124707507375" Properties=species:S:1:pos:R:3:initial_magmoms:R:1:castep_labels:S:1 n_minim_iter=14 pbc="T T T"
P        1.04273372       6.73509470       9.52544356       0.00000000 NULL
P        4.62711792       1.23765501       9.52544356       0.00000000 NULL
P        1.78425496       4.36817987       2.33693208       0.00000000 NULL
P        3.88559668       3.60456985       2.33693208       0.00000000 NULL
P        3.20718892       2.06856214       0.66182664       0.00000000 NULL
P        2.46266271       5.90418757       0.66182664       0.00000000 NULL
P        5.04054578       4.17780760       6.63437643       0.00000000 NULL
P        0.62930585       3.79494211       6.63437643       0.00000000 NULL
P        2.64789307       6.86607129       5.78398466       0.00000000 NULL
P        3.02195856       1.10667842       5.78398466       0.00000000 NULL
P        1.98195338       4.89700535       9.17838258       0.00000000 NULL
P        3.68789825       3.07574437       9.17838258       0.00000000 NULL
P        1.30719960       7.52185119       1.57774027       0.00000000 NULL
P        4.36265203       0.45089853       1.57774027       0.00000000 NULL
P       -0.04878884       5.05049731       8.50566195       0.00000000 NULL
P        5.71864048       2.92225241       8.50566195       0.00000000 NULL
P        4.31030679       1.72175429       3.52627009       0.00000000 NULL
P        1.35954484       6.25099542       3.52627009       0.00000000 NULL
P        1.27075958       3.20099899       4.22281857       0.00000000 NULL
P        4.39909205       4.77175073       4.22281857       0.00000000 NULL
P        2.14403604       1.28548918       3.78411382       0.00000000 NULL
P        3.52581560       6.68726054       3.78411382       0.00000000 NULL
22
Lattice="6.621006478087776 0.07333471331297271 0.0 -0.9275874482386133 8.041018839585167 0.0 0.0 0.0 13.580213146604303" Properties=species:S:1:pos:R:3:initial_magmoms:R:1:castep_labels:S:1 n_minim_iter=15 pbc="T T T"
P        1.01435578       6.88156354       9.64585963       0.00000000 NULL
P        4.67906325       1.23279001       9.64585963       0.00000000 NULL
P        1.77969197       4.45365172       2.36568669       0.00000000 NULL
P        3.91372705       3.66070183       2.36568669       0.00000000 NULL
P        3.23527364       2.09495537       0.66885595       0.00000000 NULL
P        2.45814538       6.01939818       0.66885595       0.00000000 NULL
P        5.07813519       4.23820384       6.71785923       0.00000000 NULL
P        0.61528383       3.87614971       6.71785923       0.00000000 NULL
P        2.63939104       7.00138611       5.85808474       0.00000000 NULL
P        3.05402799       1.11296744       5.85808474       0.00000000 NULL
P        1.97814657       4.99365345       9.29447150       0.00000000 NULL
P        3.71527246       3.12070010       9.29447150       0.00000000 NULL
P        1.27781919       7.68115614       1.59744224       0.00000000 NULL
P        4.41559983       0.43319741       1.59744224       0.00000000 NULL
P       -0.08110402       5.16415822       8.61195242       0.00000000 NULL
P        5.77452305       2.95019533       8.61195242       0.00000000 NULL
P        4.35500282       1.73264182       3.57031151       0.00000000 NULL
P        1.33841620       6.38171174       3.57031151       0.00000000 NULL
P        1.26600167       3.26525231       4.27575477       0.00000000 NULL
P        4.42741736       4.84910124       4.27575477       0.00000000 NULL
P        2.16238612       1.29996898       3.83350008       0.00000000 NULL
P        3.53103291       6.81438457       3.83350008       0.00000000 NULL
22
Lattice="6.6098800973304455 0.07186025713518422 0.0 -0.927622896931696 8.029626448858862 0.0 0.0 0.0 13.56521128448389" Properties=species:S:1:pos:R:3:initial_magmoms:R:1:castep_labels:S:1 n_minim_iter=16 pbc="T T T"
P        1.01112010       6.87238973       9.63500953       0.00000000 NULL
P        4.67113710       1.22909698       9.63500953       0.00000000 NULL
P        1.77584206       4.44679451       2.36290033       0.00000000 NULL
P        3.90641513       3.65469220       2.36290033       0.00000000 NULL
P        3.22989139       2.09144262       0.66806925       0.00000000 NULL
P        2.45236581       6.01004409       0.66806925       0.00000000 NULL
P        5.06868849       4.23032577       6.71080065       0.00000000 NULL
P        0.61356871       3.87116093       6.71080065       0.00000000 NULL
P        2.63320295       6.99084824       5.85189005       0.00000000 NULL
P        3.04905425       1.11063846       5.85189005       0.00000000 NULL
P        1.97357600       4.98721203       9.28455026       0.00000000 NULL
P        3.70868120       3.11427468       9.28455026       0.00000000 NULL
P        1.27509630       7.66895477       1.59573373       0.00000000 NULL
P        4.40716089       0.43253194       1.59573373       0.00000000 NULL
P       -0.08208328       5.15700940       8.60153017       0.00000000 NULL
P        5.76434048       2.94447731       8.60153017       0.00000000 NULL
P        4.34689116       1.72941535       3.56542501       0.00000000 NULL
P        1.33536604       6.37207135       3.56542501       0.00000000 NULL
P        1.26254998       3.26056391       4.27038833       0.00000000 NULL
P        4.41970721       4.84092280       4.27038833       0.00000000 NULL
P        2.15798203       1.29786743       3.83113327       0.00000000 NULL
P        3.52427516       6.80361928       3.83113327       0.00000000 NULL
22
Lattice="6.606095233581598 0.06855041181252547 0.0 -0.9309482871076398 8.030258361857424 0.0 0.0 0.0 13.565663272371648" Properties=species:S:1:pos:R:3:initial_magmoms:R:1:castep_labels:S:1 n_minim_iter=17 pbc="T T T"
P        1.00704740       6.87319938       9.63515421       0.00000000 NULL
P        4.66809954       1.22560939       9.63515421       0.00000000 NULL
P        1.77266571       4.44587253       2.36274468       0.00000000 NULL
P        3.90248123       3.65293624       2.36274468       0.00000000 NULL
P        3.22751764       2.09010553       0.66793055       0.00000000 NULL
P        2.44762930       6.00870324       0.66793055       0.00000000 NULL
P        5.06357944       4.22709284       6.71137915       0.00000000 NULL
P        0.61156750       3.87171593       6.71137915       0.00000000 NULL
P        2.62794244       6.98971891       5.85248643       0.00000000 NULL
P        3.04720450       1.10908987       5.85248643       0.00000000 NULL
P        1.96986715       4.98755972       9.28526648       0.00000000 NULL
P        3.70527980       3.11124905       9.28526648       0.00000000 NULL
P        1.27161555       7.66755649       1.59582730       0.00000000 NULL
P        4.40353139       0.43125228       1.59582730       0.00000000 NULL
P       -0.08468741       5.15749589       8.60081895       0.00000000 NULL
P        5.75983435       2.94131288       8.60081895       0.00000000 NULL
P        4.34316794       1.72746834       3.56455506       0.00000000 NULL
P        1.33197900       6.37134043       3.56455506       0.00000000 NULL
P        1.25946841       3.26033296       4.26986383       0.00000000 NULL
P        4.41567853       4.83847582       4.26986383       0.00000000 NULL
P        2.15547387       1.29700399       3.83328240       0.00000000 NULL
P        3.51967307       6.80180478       3.83328240       0.00000000 NULL
22
Lattice="6.597750721844067 0.05975270243740743 0.0 -0.9400501196106916 8.032319732516402 0.0 0.0 0.0 13.575501228926228" Properties=species:S:1:pos:R:3:initial_magmoms:R:1:castep_labels:S:1 n_minim_iter=18 pbc="T T T"
P        0.99636622       6.87634781       9.64155929       0.00000000 NULL
P        4.66133438       1.21572463       9.64155929       0.00000000 NULL
P        1.76461938       4.44354691       2.36366833       0.00000000 NULL
P        3.89308122       3.64852552       2.36366833       0.00000000 NULL
P        3.22229586       2.08681089       0.66783859       0.00000000 NULL
P        2.43540474       6.00526154       0.66783859       0.00000000 NULL
P        5.05110993       4.21824474       6.71737719       0.00000000 NULL
P        0.60659067       3.87382769       6.71737719       0.00000000 NULL
P        2.61437235       6.98709006       5.85810494       0.00000000 NULL
P        3.04332825       1.10498238       5.85810494       0.00000000 NULL
P        1.96042271       4.98949753       9.29335492       0.00000000 NULL
P        3.69727789       3.10257491       9.29335492       0.00000000 NULL
P        1.26312053       7.66364226       1.59711990       0.00000000 NULL
P        4.39458007       0.42843017       1.59711990       0.00000000 NULL
P       -0.09178533       5.15924835       8.60381633       0.00000000 NULL
P        5.74948593       2.93282409       8.60381633       0.00000000 NULL
P        4.33419670       1.72251301       3.56396005       0.00000000 NULL
P        1.32350389       6.36955942       3.56396005       0.00000000 NULL
P        1.25112625       3.26003308       4.27083294       0.00000000 NULL
P        4.40657435       4.83203936       4.27083294       0.00000000 NULL
P        2.14889307       1.29486742       3.84256342       0.00000000 NULL
P        3.50880753       6.79720501       3.84256342       0.00000000 NULL
