8
Lattice="3.6005400000000005 2.2262711753519144e-15 2.2090431139780515e-15 -1.5236754381955044 5.397500569026348 9.165044037724303e-16 -1.1556327094877488 -1.8173122129976058 8.778309725576548" Properties=species:S:1:pos:R:3:initial_magmoms:R:1:castep_labels:S:1 n_minim_iter=1 pbc="T T T"
P       -2.02909132       3.87416255       5.23360280       0.00000000 NULL
P       -0.19807081       4.42157614       4.47558259       0.00000000 NULL
P        1.86195234       1.83400149       5.17664737       0.00000000 NULL
P       -1.28424055       3.54281755       2.11975551       0.00000000 NULL
P        1.02776870      -1.41130493       7.96835879       0.00000000 NULL
P        0.12006390       0.41670606       0.55281405       0.00000000 NULL
P        2.31609311       3.80641373       0.09301058       0.00000000 NULL
P       -0.62734357      -0.07655404       3.62860825       0.00000000 NULL
8
Lattice="3.6054617519333996 0.00037314886756816234 0.0008002653375895234 -1.5251988433816077 5.403114610832722 -0.002488200483803784 -1.155449650424531 -1.822871312325195 8.787910300102123" Properties=species:S:1:pos:R:3:initial_magmoms:R:1:castep_labels:S:1 n_minim_iter=2 pbc="T T T"
P       -2.03025409       3.87590231       5.23748175       0.00000000 NULL
P       -0.19704581       4.42450339       4.47827573       0.00000000 NULL
P        1.86583783       1.83396311       5.18176094       0.00000000 NULL
P       -1.28517603       3.54556290       2.12038937       0.00000000 NULL
P        1.03063331      -1.41588274       7.97735354       0.00000000 NULL
P        0.12058058       0.41711663       0.55337013       0.00000000 NULL
P        2.31967385       3.81058102       0.09192753       0.00000000 NULL
P       -0.62729382      -0.07790704       3.63198290       0.00000000 NULL
8
Lattice="3.791965816645525 0.014928126160362954 0.032136301174795004 -1.5823044898417087 5.615794830746245 -0.09960865991214914 -1.1462576146401957 -2.03761163291323 9.150716303603701" Properties=species:S:1:pos:R:3:initial_magmoms:R:1:castep_labels:S:1 n_minim_iter=3 pbc="T T T"
P       -2.07222603       3.93895020       5.38181079       0.00000000 NULL
P       -0.15664043       4.53356688       4.57729678       0.00000000 NULL
P        2.01471800       1.83033966       5.37449668       0.00000000 NULL
P       -1.31963745       3.64845308       2.14221603       0.00000000 NULL
P        1.14101301      -1.59280086       8.31773786       0.00000000 NULL
P        0.14069374       0.43255078       0.57416149       0.00000000 NULL
P        2.45573480       3.96885957       0.04981891       0.00000000 NULL
P       -0.62432700      -0.13045725       3.75867568       0.00000000 NULL
8
Lattice="3.8073495765324203 0.03726000137193937 0.055169086081800704 -1.5553372982329141 5.651423283059877 -0.17801472883837804 -1.106311674843683 -2.171621864325242 9.196638191764556" Properties=species:S:1:pos:R:3:initial_magmoms:R:1:castep_labels:S:1 n_minim_iter=4 pbc="T T T"
P       -2.02285233       3.88721485       5.34841564       0.00000000 NULL
P       -0.10316639       4.51198922       4.53037435       0.00000000 NULL
P        2.06651708       1.79003830       5.38186622       0.00000000 NULL
P       -1.29063082       3.64255300       2.09764559       0.00000000 NULL
P        1.18435127      -1.69995840       8.37166984       0.00000000 NULL
P        0.15183083       0.43225662       0.56964449       0.00000000 NULL
P        2.48916878       4.01362632       0.01649853       0.00000000 NULL
P       -0.60194733      -0.17591485       3.75959182       0.00000000 NULL
8
Lattice="3.7897849117083875 0.05946750427571088 0.07141987947394401 -1.514613446273966 5.669638466646905 -0.25035934994415493 -1.0722626620186035 -2.294521033857717 9.199624810276042" Properties=species:S:1:pos:R:3:initial_magmoms:R:1:castep_labels:S:1 n_minim_iter=5 pbc="T T T"
P       -1.96529535       3.82615898       5.29336714       0.00000000 NULL
P       -0.05568279       4.47892900       4.46444896       0.00000000 NULL
P        2.09149854       1.74745988       5.36079057       0.00000000 NULL
P       -1.25379338       3.62651003       2.04657966       0.00000000 NULL
P        1.20410744      -1.79795305       8.38341377       0.00000000 NULL
P        0.16002177       0.43072405       0.56138333       0.00000000 NULL
P        2.50091740       4.04618538      -0.01843440       0.00000000 NULL
P       -0.58108264      -0.21970762       3.74438717       0.00000000 NULL
8
Lattice="3.7332362325161945 0.10872124080187191 0.1031181777784978 -1.4168478598690997 5.7283647660363615 -0.4259528552400469 -1.001690590407359 -2.6008832755322935 9.222025393439477" Properties=species:S:1:pos:R:3:initial_magmoms:R:1:castep_labels:S:1 n_minim_iter=6 pbc="T T T"
P       -1.83405846       3.68502923       5.16819195       0.00000000 NULL
P        0.04530335       4.40734877       4.30822730       0.00000000 NULL
P        2.13156118       1.64354519       5.31152353       0.00000000 NULL
P       -1.16815208       3.59547512       1.92575141       0.00000000 NULL
P        1.23338641      -2.04552430       8.42060291       0.00000000 NULL
P        0.17706593       0.42806361       0.54132245       0.00000000 NULL
P        2.51538735       4.13056014      -0.10963911       0.00000000 NULL
P       -0.53650013      -0.32689909       3.71399570       0.00000000 NULL
8
Lattice="3.695484572470528 0.12641181264900442 0.11188157039076664 -1.3743525261763805 5.764487789422731 -0.5096795325180856 -0.9771371802214279 -2.7513831367576245 9.252481973702933" Properties=species:S:1:pos:R:3:initial_magmoms:R:1:castep_labels:S:1 n_minim_iter=7 pbc="T T T"
P       -1.78082723       3.62061988       5.12082215       0.00000000 NULL
P        0.07909512       4.37677313       4.24009724       0.00000000 NULL
P        2.13307109       1.59150025       5.29384749       0.00000000 NULL
P       -1.13255574       3.58502573       1.87190839       0.00000000 NULL
P        1.23280351      -2.17084358       8.45204021       0.00000000 NULL
P        0.18285672       0.42653169       0.53256015       0.00000000 NULL
P        2.50915775       4.17094212      -0.15794727       0.00000000 NULL
P       -0.52025008      -0.37815875       3.70737323       0.00000000 NULL
8
Lattice="3.5093818268611883 0.19212378813259182 0.14550794578590323 -1.197090057899341 5.914466431843175 -0.8671259132685291 -0.8685895782694573 -3.390529350174657 9.410403604978033" Properties=species:S:1:pos:R:3:initial_magmoms:R:1:castep_labels:S:1 n_minim_iter=8 pbc="T T T"
P       -1.55517391       3.33203081       4.94459797       0.00000000 NULL
P        0.20703929       4.24229410       3.95732218       0.00000000 NULL
P        2.11594885       1.36145045       5.23253968       0.00000000 NULL
P       -0.98328885       3.53743160       1.64574960       0.00000000 NULL
P        1.21841674      -2.70799349       8.60746321       0.00000000 NULL
P        0.20545667       0.41885044       0.49693049       0.00000000 NULL
P        2.45697462       4.32989793      -0.36379193       0.00000000 NULL
P       -0.45077154      -0.58930001       3.68474366       0.00000000 NULL
8
Lattice="3.354295459857446 0.1988408339231354 0.1446246884049021 -1.1213912608635621 5.895878123392079 -0.9615825498414977 -0.8243566570140676 -3.541612658332726 9.61821666141708" Properties=species:S:1:pos:R:3:initial_magmoms:R:1:castep_labels:S:1 n_minim_iter=9 pbc="T T T"
P       -1.45935776       3.17796389       5.04299806       0.00000000 NULL
P        0.21645912       4.16164006       3.93668221       0.00000000 NULL
P        2.03556822       1.27865038       5.31101900       0.00000000 NULL
P       -0.92059615       3.48758687       1.60334160       0.00000000 NULL
P        1.15845903      -2.83577567       8.78690540       0.00000000 NULL
P        0.21414399       0.39961999       0.50598492       0.00000000 NULL
P        2.36783840       4.31537978      -0.40462199       0.00000000 NULL
P       -0.42561148      -0.61992844       3.71976255       0.00000000 NULL
8
Lattice="3.382706574216524 0.22840095411011554 0.14749191822690252 -1.0891012575837673 6.040994461432384 -0.9232567307751106 -0.8414050300547441 -3.539866915935549 9.616253757436686" Properties=species:S:1:pos:R:3:initial_magmoms:R:1:castep_labels:S:1 n_minim_iter=10 pbc="T T T"
P       -1.43790645       3.31139261       5.09743889       0.00000000 NULL
P        0.25008854       4.31928905       3.96188402       0.00000000 NULL
P        2.06785902       1.37617381       5.34654372       0.00000000 NULL
P       -0.90033855       3.59379092       1.61213913       0.00000000 NULL
P        1.15440279      -2.80289926       8.78346381       0.00000000 NULL
P        0.22684672       0.41436259       0.51685669       0.00000000 NULL
P        2.42079123       4.43392186      -0.35575266       0.00000000 NULL
P       -0.42747429      -0.57772591       3.70152068       0.00000000 NULL
8
Lattice="3.337289554480784 0.22822817438597068 0.14562836516328478 -1.0701407075584943 5.9100468014348095 -0.8940596819153178 -0.8312841753233953 -3.449494904025284 9.510782096226494" Properties=species:S:1:pos:R:3:initial_magmoms:R:1:castep_labels:S:1 n_minim_iter=11 pbc="T T T"
P       -1.41485085       3.24629265       5.06298382       0.00000000 NULL
P        0.24959936       4.23499123       3.93398918       0.00000000 NULL
P        2.04189509       1.36038433       5.29937082       0.00000000 NULL
P       -0.88555749       3.52082658       1.60532874       0.00000000 NULL
P        1.13687254      -2.72565625       8.68829473       0.00000000 NULL
P        0.22492672       0.40235422       0.51398453       0.00000000 NULL
P        2.39280612       4.34431708      -0.33558494       0.00000000 NULL
P       -0.42232251      -0.55960842       3.65992794       0.00000000 NULL
