12
Lattice="4.008550000000002 -2.933999540399619e-14 -4.2502062183543386e-14 -0.02080071528872703 7.689961867938188 3.2166507012092174e-16 -0.2689355658152668 -3.500947339751427 8.45701726181441" Properties=species:S:1:pos:R:3:initial_magmoms:R:1:castep_labels:S:1 n_minim_iter=1 pbc="T T T"
P        1.56629160       5.86717123       1.04587594       0.00000000 NULL
P        1.16798922       3.17213265       4.25491398       0.00000000 NULL
P        0.43511032       5.22496139       3.23464757       0.00000000 NULL
P        2.86446405       3.42887455       6.03753143       0.00000000 NULL
P        2.44894486       1.81982514       2.34690517       0.00000000 NULL
P        2.28320537      -2.26486935       8.11771158       0.00000000 NULL
P        0.89331117       1.26175556       3.53043429       0.00000000 NULL
P        3.08434247       0.12346199       1.30601041       0.00000000 NULL
P        0.16313399       1.92506301       5.64224453       0.00000000 NULL
P        0.55138710      -1.71544554       5.87754835       0.00000000 NULL
P        2.47676155       5.22002391       2.77214345       0.00000000 NULL
P        0.45857993       3.65330761       0.44330754       0.00000000 NULL
12
Lattice="4.012454653120368 -0.0011941738515459245 -0.0021880737102653904 -0.0231118679398633 7.693061752270563 -0.000951869078423807 -0.27277085225675907 -3.5033349628508494 8.46128384621927" Properties=species:S:1:pos:R:3:initial_magmoms:R:1:castep_labels:S:1 n_minim_iter=2 pbc="T T T"
P        1.56540107       5.86889744       1.04456385       0.00000000 NULL
P        1.16594983       3.17275436       4.25582348       0.00000000 NULL
P        0.43230528       5.22659278       3.23544337       0.00000000 NULL
P        2.86279487       3.42882772       6.03817667       0.00000000 NULL
P        2.44968979       1.81966642       2.34627424       0.00000000 NULL
P        2.28161672      -2.26742336       8.12014979       0.00000000 NULL
P        0.89165720       1.26134072       3.53131168       0.00000000 NULL
P        3.08667473       0.12226804       1.30486110       0.00000000 NULL
P        0.15968989       1.92490211       5.64446427       0.00000000 NULL
P        0.54921316      -1.71712483       5.87995874       0.00000000 NULL
P        2.47609267       5.22096436       2.77134906       0.00000000 NULL
P        0.45774628       3.65467950       0.44280423       0.00000000 NULL
12
Lattice="4.155586903699027 -0.045727259767339455 -0.08378581741851031 -0.10928641627959049 7.803367086510533 -0.03511964664748339 -0.4156302131712946 -3.5885014225018224 8.615170786417668" Properties=species:S:1:pos:R:3:initial_magmoms:R:1:castep_labels:S:1 n_minim_iter=3 pbc="T T T"
P        1.53133295       5.92947415       0.99620831       0.00000000 NULL
P        1.08904131       3.19434214       4.28789485       0.00000000 NULL
P        0.32728074       5.28428049       3.26412404       0.00000000 NULL
P        2.79866604       3.42569032       6.05957558       0.00000000 NULL
P        2.47600039       1.81270650       2.32167324       0.00000000 NULL
P        2.22100159      -2.35970714       8.20635379       0.00000000 NULL
P        0.82951146       1.24580666       3.56244780       0.00000000 NULL
P        3.17182678       0.07795567       1.26128323       0.00000000 NULL
P        0.03112861       1.91869176       5.72443819       0.00000000 NULL
P        0.46789330      -1.77751635       5.96634438       0.00000000 NULL
P        2.44959168       5.25294526       2.74115183       0.00000000 NULL
P        0.42635178       3.70340094       0.42437561       0.00000000 NULL
12
Lattice="4.1745082069735755 -0.08317886257527335 -0.1435685968995377 -0.1812313774571936 7.748948801191515 -0.059902639150037684 -0.5103169503237639 -3.588721922579778 8.57951991759682" Properties=species:S:1:pos:R:3:initial_magmoms:R:1:castep_labels:S:1 n_minim_iter=4 pbc="T T T"
P        1.46583836       5.86806685       0.94253056       0.00000000 NULL
P        1.00348425       3.15288022       4.23909992       0.00000000 NULL
P        0.23580251       5.23403869       3.23030561       0.00000000 NULL
P        2.68695296       3.35820703       5.96829146       0.00000000 NULL
P        2.43999546       1.77011816       2.26286987       0.00000000 NULL
P        2.12977283      -2.39054956       8.12789331       0.00000000 NULL
P        0.76560991       1.21173590       3.52115369       0.00000000 NULL
P        3.16697434       0.04070778       1.20649232       0.00000000 NULL
P       -0.07032157       1.88356887       5.68346267       0.00000000 NULL
P        0.39944671      -1.79264687       5.92483357       0.00000000 NULL
P        2.36933800       5.18137181       2.67124711       0.00000000 NULL
P        0.38930901       3.67632150       0.40346377       0.00000000 NULL
12
Lattice="4.200724638278282 -0.1850556596985801 -0.28241388993728683 -0.37680683632121176 7.61625396079273 -0.13729743994948432 -0.7160278105742988 -3.6071424631002715 8.53204953444243" Properties=species:S:1:pos:R:3:initial_magmoms:R:1:castep_labels:S:1 n_minim_iter=5 pbc="T T T"
P        1.28339978       5.71297081       0.80042893       0.00000000 NULL
P        0.78737241       3.04348053       4.13459847       0.00000000 NULL
P        0.00331637       5.10288266       3.15402868       0.00000000 NULL
P        2.40275653       3.17411864       5.76607159       0.00000000 NULL
P        2.33961524       1.65323328       2.12751535       0.00000000 NULL
P        1.91475915      -2.48689711       7.97322354       0.00000000 NULL
P        0.61051783       1.11524109       3.43008149       0.00000000 NULL
P        3.14344175      -0.06302630       1.08424386       0.00000000 NULL
P       -0.31576471       1.78713921       5.60188775       0.00000000 NULL
P        0.24585707      -1.84712476       5.84884357       0.00000000 NULL
P        2.15128721       4.99211957       2.50862434       0.00000000 NULL
P        0.28639061       3.60890307       0.34632844       0.00000000 NULL
12
Lattice="4.181626969266377 -0.2728092662217326 -0.32086629431203406 -0.5450533700457008 7.566649987979685 -0.20717075484192174 -0.7192299285030296 -3.655527366629592 8.621854315639824" Properties=species:S:1:pos:R:3:initial_magmoms:R:1:castep_labels:S:1 n_minim_iter=6 pbc="T T T"
P        1.12914340       5.63263536       0.71573147       0.00000000 NULL
P        0.67066391       2.98190910       4.14011676       0.00000000 NULL
P       -0.13387608       5.03175265       3.15547535       0.00000000 NULL
P        2.25796622       3.04521263       5.74545161       0.00000000 NULL
P        2.27302774       1.56430007       2.09618121       0.00000000 NULL
P        1.87006645      -2.58605625       8.01038841       0.00000000 NULL
P        0.54677665       1.03368971       3.41933294       0.00000000 NULL
P        3.11968365      -0.15414862       1.06379001       0.00000000 NULL
P       -0.41858170       1.72344791       5.62533472       0.00000000 NULL
P        0.22714627      -1.91755680       5.88694836       0.00000000 NULL
P        1.99105986       4.86844782       2.46869158       0.00000000 NULL
P        0.19756950       3.57982804       0.31125611       0.00000000 NULL
12
Lattice="4.13713783087319 -0.3188321542480875 -0.3577018558500128 -0.6331123559817406 7.454878339006552 -0.18777629025298548 -0.7537637526452674 -3.580326753955625 8.489364368159075" Properties=species:S:1:pos:R:3:initial_magmoms:R:1:castep_labels:S:1 n_minim_iter=7 pbc="T T T"
P        1.03150468       5.53108006       0.69007047       0.00000000 NULL
P        0.57921730       2.94869032       4.08624058       0.00000000 NULL
P       -0.22313055       4.96078538       3.14487605       0.00000000 NULL
P        2.13679279       2.98849131       5.63731679       0.00000000 NULL
P        2.20868498       1.51270944       2.03801403       0.00000000 NULL
P        1.79411714      -2.55353786       7.85573629       0.00000000 NULL
P        0.49548635       0.99776753       3.34992429       0.00000000 NULL
P        3.07748976      -0.19085211       1.01233923       0.00000000 NULL
P       -0.50045358       1.71350402       5.54936159       0.00000000 NULL
P        0.18842364      -1.90039868       5.78187698       0.00000000 NULL
P        1.86869021       4.76713930       2.41912844       0.00000000 NULL
P        0.14154039       3.52459191       0.30822252       0.00000000 NULL
12
Lattice="4.174087424302037 -0.33405876322495115 -0.36151181589041687 -0.6625146636448683 7.512845413289321 -0.20678111256024054 -0.7509822983670269 -3.6265816780288422 8.604948042433547" Properties=species:S:1:pos:R:3:initial_magmoms:R:1:castep_labels:S:1 n_minim_iter=8 pbc="T T T"
P        1.02004496       5.56833968       0.68091711       0.00000000 NULL
P        0.57292928       2.96371168       4.13410530       0.00000000 NULL
P       -0.23986272       4.99150344       3.18432748       0.00000000 NULL
P        2.14728444       2.99337087       5.70326170       0.00000000 NULL
P        2.22425739       1.51105491       2.05830720       0.00000000 NULL
P        1.81514309      -2.59563878       7.95701576       0.00000000 NULL
P        0.49749402       0.98848039       3.38606632       0.00000000 NULL
P        3.10756664      -0.20678913       1.02497166       0.00000000 NULL
P       -0.51446280       1.71453114       5.61896830       0.00000000 NULL
P        0.19438837      -1.93620861       5.85724639       0.00000000 NULL
P        1.86604850       4.78736322       2.44083755       0.00000000 NULL
P        0.12939746       3.54866314       0.30368057       0.00000000 NULL
12
Lattice="4.159693617711315 -0.340316551278764 -0.36379616016499666 -0.6744448503803809 7.4833868696939865 -0.2083991761503365 -0.7493706298092215 -3.6145281990790736 8.59073791197418" Properties=species:S:1:pos:R:3:initial_magmoms:R:1:castep_labels:S:1 n_minim_iter=9 pbc="T T T"
P        1.00368197       5.54345884       0.67428231       0.00000000 NULL
P        0.56069188       2.95154001       4.12743349       0.00000000 NULL
P       -0.25064643       4.97086655       3.18534814       0.00000000 NULL
P        2.13066353       2.97754054       5.69020599       0.00000000 NULL
P        2.21246900       1.49892341       2.05095013       0.00000000 NULL
P        1.80555360      -2.59049600       7.93975259       0.00000000 NULL
P        0.49227976       0.97805812       3.37586327       0.00000000 NULL
P        3.09718797      -0.21231716       1.01987442       0.00000000 NULL
P       -0.52348732       1.70752807       5.61012880       0.00000000 NULL
P        0.19177862      -1.93632464       5.84505328       0.00000000 NULL
P        1.84510739       4.76184480       2.43344825       0.00000000 NULL
P        0.12021209       3.53329808       0.30132973       0.00000000 NULL
12
Lattice="4.155339048471793 -0.34786899137397104 -0.3670775453799934 -0.6889107790047118 7.471950026562097 -0.21001104014685648 -0.7494052901736009 -3.610588269836897 8.601115442842476" Properties=species:S:1:pos:R:3:initial_magmoms:R:1:castep_labels:S:1 n_minim_iter=10 pbc="T T T"
P        0.98880207       5.53205287       0.66970902       0.00000000 NULL
P        0.54923601       2.94696487       4.13298583       0.00000000 NULL
P       -0.26273223       4.96253448       3.19693381       0.00000000 NULL
P        2.11884242       2.96943793       5.69418325       0.00000000 NULL
P        2.20580634       1.49040848       2.04956225       0.00000000 NULL
P        1.80038283      -2.59103070       7.94499374       0.00000000 NULL
P        0.48821248       0.96960284       3.37522588       0.00000000 NULL
P        3.09469641      -0.21874406       1.01759933       0.00000000 NULL
P       -0.53440834       1.70491562       5.61808179       0.00000000 NULL
P        0.18954329      -1.94121594       5.84958076       0.00000000 NULL
P        1.82773027       4.74749105       2.43349402       0.00000000 NULL
P        0.11066253       3.52603703       0.30005971       0.00000000 NULL
12
Lattice="4.126729073744653 -0.38748597419985903 -0.3874323196912995 -0.764763139413122 7.402736497825487 -0.20994649932275775 -0.7558289264851284 -3.576371647190089 8.660532873883945" Properties=species:S:1:pos:R:3:initial_magmoms:R:1:castep_labels:S:1 n_minim_iter=11 pbc="T T T"
P        0.90727852       5.46664205       0.65090247       0.00000000 NULL
P        0.48370667       2.92420721       4.17006218       0.00000000 NULL
P       -0.33000583       4.91709155       3.27342673       0.00000000 NULL
P        2.04977696       2.93188704       5.72314553       0.00000000 NULL
P        2.16604255       1.44587032       2.04386894       0.00000000 NULL
P        1.76393768      -2.58122107       7.97535962       0.00000000 NULL
P        0.46492569       0.92589765       3.37357393       0.00000000 NULL
P        3.07772524      -0.25040653       1.00309595       0.00000000 NULL
P       -0.59835725       1.69638987       5.66941899       0.00000000 NULL
P        0.17226379      -1.96134481       5.87606036       0.00000000 NULL
P        1.72935312       4.66883085       2.43916145       0.00000000 NULL
P        0.05840606       3.48238540       0.29690026       0.00000000 NULL
12
Lattice="4.079133775823204 -0.4041707196651679 -0.4135732103150158 -0.7965240105918141 7.355914376541149 -0.161859980255491 -0.7932143849716417 -3.501162654443454 8.789611272706784" Properties=species:S:1:pos:R:3:initial_magmoms:R:1:castep_labels:S:1 n_minim_iter=12 pbc="T T T"
P        0.84851866       5.43423462       0.67824929       0.00000000 NULL
P        0.42646513       2.93817838       4.27054906       0.00000000 NULL
P       -0.37794108       4.91573148       3.43814222       0.00000000 NULL
P        1.98488201       2.96699248       5.83799420       0.00000000 NULL
P        2.12206848       1.43601741       2.06949765       0.00000000 NULL
P        1.69543735      -2.51230834       8.07379197       0.00000000 NULL
P        0.44587577       0.91042114       3.40821326       0.00000000 NULL
P        3.05036334      -0.24947698       0.99165900       0.00000000 NULL
P       -0.66662172       1.73285933       5.80008809       0.00000000 NULL
P        0.13011393      -1.95394413       5.95369438       0.00000000 NULL
P        1.64047551       4.63675883       2.49537185       0.00000000 NULL
P        0.02074848       3.44329899       0.31736655       0.00000000 NULL
12
Lattice="3.9575331540453274 -0.3958621979354453 -0.4202311182752009 -0.7799540301267976 7.209702056124173 -0.13811940471063408 -0.8063590401642886 -3.4091041464500136 8.853718092243048" Properties=species:S:1:pos:R:3:initial_magmoms:R:1:castep_labels:S:1 n_minim_iter=13 pbc="T T T"
P        0.80641721       5.33045770       0.69415232       0.00000000 NULL
P        0.39209688       2.88762107       4.32166496       0.00000000 NULL
P       -0.38650081       4.83657486       3.53490590       0.00000000 NULL
P        1.90884232       2.94514122       5.90121642       0.00000000 NULL
P        2.05313432       1.41123092       2.08599051       0.00000000 NULL
P        1.61268170      -2.43110678       8.12421712       0.00000000 NULL
P        0.42766345       0.88977446       3.42265397       0.00000000 NULL
P        2.96343286      -0.23213861       0.98698326       0.00000000 NULL
P       -0.68929912       1.72352039       5.86815237       0.00000000 NULL
P        0.09394295      -1.92183232       5.99472383       0.00000000 NULL
P        1.55885857       4.54724604       2.52205128       0.00000000 NULL
P        0.00449705       3.36109156       0.32552112       0.00000000 NULL
12
Lattice="3.9929380372264336 -0.3975562681517491 -0.43130375163219176 -0.7833876363584406 7.295806316051225 -0.12538006410084726 -0.8306152507909801 -3.434239613609378 8.984492732451265" Properties=species:S:1:pos:R:3:initial_magmoms:R:1:castep_labels:S:1 n_minim_iter=14 pbc="T T T"
P        0.81301143       5.39767826       0.71299165       0.00000000 NULL
P        0.38954184       2.93046401       4.39368378       0.00000000 NULL
P       -0.39326643       4.90331467       3.60696576       0.00000000 NULL
P        1.91727727       2.99775782       5.99842834       0.00000000 NULL
P        2.06964358       1.43481991       2.11808045       0.00000000 NULL
P        1.61226194      -2.44167195       8.24124196       0.00000000 NULL
P        0.42683607       0.90518924       3.47495894       0.00000000 NULL
P        2.99021240      -0.22919903       0.99649004       0.00000000 NULL
P       -0.70587287       1.75442301       5.96486949       0.00000000 NULL
P        0.08213898      -1.93568059       6.08339343       0.00000000 NULL
P        1.56758930       4.60754722       2.56639540       0.00000000 NULL
P        0.00391631       3.39903832       0.33598374       0.00000000 NULL
12
Lattice="3.9755851504853235 -0.39488024906457 -0.43396458055719156 -0.7781639427049208 7.282000506976174 -0.1138021967255457 -0.8374018618198028 -3.41542266315953 8.985660952417664" Properties=species:S:1:pos:R:3:initial_magmoms:R:1:castep_labels:S:1 n_minim_iter=15 pbc="T T T"
P        0.80885545       5.38960406       0.72101959       0.00000000 NULL
P        0.38399903       2.93068216       4.40165851       0.00000000 NULL
P       -0.39376594       4.90083514       3.62368348       0.00000000 NULL
P        1.90421627       3.00529252       6.00704157       0.00000000 NULL
P        2.05973571       1.43641364       2.12051333       0.00000000 NULL
P        1.59648433      -2.42301848       8.24118036       0.00000000 NULL
P        0.42253739       0.90780792       3.47666163       0.00000000 NULL
P        2.97695731      -0.22384268       0.99349213       0.00000000 NULL
P       -0.70978175       1.76037807       5.97310434       0.00000000 NULL
P        0.07379711      -1.92553524       6.08436860       0.00000000 NULL
P        1.55664631       4.60353950       2.57262912       0.00000000 NULL
P        0.00287527       3.39117716       0.34059100       0.00000000 NULL
12
Lattice="3.96275697135675 -0.392267927551536 -0.4374759324426931 -0.7730859249369628 7.278142152574769 -0.10290627294481682 -0.846230792467371 -3.4018848062484133 9.007003037225262" Properties=species:S:1:pos:R:3:initial_magmoms:R:1:castep_labels:S:1 n_minim_iter=16 pbc="T T T"
P        0.80592803       5.38909453       0.73012679       0.00000000 NULL
P        0.37887230       2.93458460       4.41917619       0.00000000 NULL
P       -0.39440496       4.90511374       3.64887364       0.00000000 NULL
P        1.89312268       3.01719931       6.02919187       0.00000000 NULL
P        2.05238006       1.44015475       2.12753132       0.00000000 NULL
P        1.58170397      -2.40775085       8.25936060       0.00000000 NULL
P        0.41849507       0.91140121       3.48601365       0.00000000 NULL
P        2.96716411      -0.21844301       0.99259307       0.00000000 NULL
P       -0.71480647       1.76823593       5.99470843       0.00000000 NULL
P        0.06471020      -1.91845066       6.09904197       0.00000000 NULL
P        1.54749084       4.60575732       2.58422059       0.00000000 NULL
P        0.00202376       3.38766752       0.34565413       0.00000000 NULL
12
Lattice="3.912864926591781 -0.3819586356410057 -0.4494375353746095 -0.7530497892031551 7.260850341962319 -0.06516556824712959 -0.877123266123565 -3.353291523104434 9.09695223718481" Properties=species:S:1:pos:R:3:initial_magmoms:R:1:castep_labels:S:1 n_minim_iter=17 pbc="T T T"
P        0.79533527       5.38480924       0.76314290       0.00000000 NULL
P        0.36084004       2.94604674       4.48812099       0.00000000 NULL
P       -0.39516199       4.91815384       3.74525271       0.00000000 NULL
P        1.85218673       3.05839540       6.11809114       0.00000000 NULL
P        2.02486083       1.45285432       2.15622272       0.00000000 NULL
P        1.52754670      -2.35260008       8.33703781       0.00000000 NULL
P        0.40358810       0.92349017       3.52467695       0.00000000 NULL
P        2.92916053      -0.19835138       0.99129185       0.00000000 NULL
P       -0.73134209       1.79449364       6.08071634       0.00000000 NULL
P        0.03188627      -1.89316892       6.16099161       0.00000000 NULL
P        1.51369439       4.61113160       2.62896809       0.00000000 NULL
P       -0.00068209       3.37305701       0.36360983       0.00000000 NULL
12
Lattice="3.826442743841501 -0.36067603484677535 -0.4649803516521744 -0.7117730103738514 7.2294850188859945 -0.011312779828265077 -0.9227041199418261 -3.281354443713475 9.269064621848617" Properties=species:S:1:pos:R:3:initial_magmoms:R:1:castep_labels:S:1 n_minim_iter=18 pbc="T T T"
P        0.78412123       5.37577852       0.81501625       0.00000000 NULL
P        0.33779871       2.95881806       4.60904588       0.00000000 NULL
P       -0.38674023       4.93518385       3.90561010       0.00000000 NULL
P        1.78944326       3.12021136       6.27919811       0.00000000 NULL
P        1.98225496       1.47323403       2.21007836       0.00000000 NULL
P        1.44257022      -2.26750787       8.48878802       0.00000000 NULL
P        0.37955748       0.94241760       3.59931629       0.00000000 NULL
P        2.86292556      -0.16360981       0.99496774       0.00000000 NULL
P       -0.74792496       1.82929847       6.23304440       0.00000000 NULL
P       -0.01840901      -1.85388949       6.28042541       0.00000000 NULL
P        1.46458602       4.61697900       2.70602795       0.00000000 NULL
P       -0.00063969       3.34833613       0.39058317       0.00000000 NULL
12
Lattice="3.699335257334992 -0.3264872077981888 -0.4930813852740452 -0.6455259377538177 7.20631851666171 0.107892610049756 -1.0033219208216868 -3.1422466482884785 9.478383076050648" Properties=species:S:1:pos:R:3:initial_magmoms:R:1:castep_labels:S:1 n_minim_iter=19 pbc="T T T"
P        0.77132242       5.38437489       0.91907013       0.00000000 NULL
P        0.30023569       3.00729896       4.78911353       0.00000000 NULL
P       -0.37377742       4.99898865       4.15748125       0.00000000 NULL
P        1.68608047       3.25564288       6.51507513       0.00000000 NULL
P        1.92062135       1.52251163       2.28921960       0.00000000 NULL
P        1.30748619      -2.10602794       8.67347806       0.00000000 NULL
P        0.33431536       0.99590681       3.70934427       0.00000000 NULL
P        2.76181155      -0.10304789       0.98788573       0.00000000 NULL
P       -0.77154470       1.91165393       6.44630963       0.00000000 NULL
P       -0.10045984      -1.76704336       6.42898585       0.00000000 NULL
P        1.39198868       4.65527422       2.83106719       0.00000000 NULL
P        0.00189001       3.32439897       0.44532986       0.00000000 NULL
12
Lattice="3.6031754771900784 -0.28796260128798495 -0.48186549756568875 -0.5711217399142456 7.157981426244626 0.11574737671586197 -1.0068540902691911 -3.114213986697193 9.933085293007613" Properties=species:S:1:pos:R:3:initial_magmoms:R:1:castep_labels:S:1 n_minim_iter=20 pbc="T T T"
P        0.78159714       5.36194250       0.96811911       0.00000000 NULL
P        0.31916655       2.97216648       5.03432967       0.00000000 NULL
P       -0.30773208       5.00468466       4.43723544       0.00000000 NULL
P        1.66431414       3.29589712       6.87621890       0.00000000 NULL
P        1.91397147       1.53419018       2.41448951       0.00000000 NULL
P        1.27171374      -2.04282997       9.09366616       0.00000000 NULL
P        0.32017419       1.00487584       3.90511090       0.00000000 NULL
P        2.69400901      -0.05551936       1.02936095       0.00000000 NULL
P       -0.72862998       1.89951770       6.76589396       0.00000000 NULL
P       -0.12397268      -1.75387584       6.74800368       0.00000000 NULL
P        1.36212257       4.63154099       2.96867011       0.00000000 NULL
P        0.01318617       3.27652066       0.45269234       0.00000000 NULL
12
Lattice="3.536515367043055 -0.28806512972296633 -0.48717353462194 -0.5709725243083764 7.052519479009171 0.17680121078057584 -1.0134908890916243 -2.999080532479505 9.615938143594375" Properties=species:S:1:pos:R:3:initial_magmoms:R:1:castep_labels:S:1 n_minim_iter=21 pbc="T T T"
P        0.75354580       5.28805661       0.98633321       0.00000000 NULL
P        0.29337163       2.95927549       4.91297025       0.00000000 NULL
P       -0.32168066       4.96430152       4.35621064       0.00000000 NULL
P        1.60494677       3.29719191       6.69281336       0.00000000 NULL
P        1.87165552       1.52618449       2.34830337       0.00000000 NULL
P        1.22490009      -1.94832937       8.80277895       0.00000000 NULL
P        0.29929865       1.01828808       3.79532695       0.00000000 NULL
P        2.64026614      -0.04549288       0.97661032       0.00000000 NULL
P       -0.73492031       1.91745798       6.58358272       0.00000000 NULL
P       -0.13985527      -1.68237143       6.53284619       0.00000000 NULL
P        1.31784735       4.58129419       2.91014744       0.00000000 NULL
P        0.00489023       3.22668660       0.46323920       0.00000000 NULL
12
Lattice="3.5770501420515743 -0.28936654976795173 -0.4942084557729051 -0.5736794938695291 7.145317656660948 0.17865137484357682 -1.0299156534620149 -3.0392430606592837 9.757893174424014" Properties=species:S:1:pos:R:3:initial_magmoms:R:1:castep_labels:S:1 n_minim_iter=22 pbc="T T T"
P        0.76352804       5.35863845       0.99939079       0.00000000 NULL
P        0.29739036       2.99703400       4.98470181       0.00000000 NULL
P       -0.32358266       5.03221833       4.42275742       0.00000000 NULL
P        1.62134543       3.34349032       6.79392767       0.00000000 NULL
P        1.89475182       1.54820531       2.38214368       0.00000000 NULL
P        1.23597002      -1.97124619       8.93112659       0.00000000 NULL
P        0.30135403       1.03188899       3.85212174       0.00000000 NULL
P        2.67091648      -0.04408062       0.98875474       0.00000000 NULL
P       -0.74341904       1.94064404       6.68134377       0.00000000 NULL
P       -0.14456493      -1.70373736       6.62942379       0.00000000 NULL
P        1.33327712       4.64147629       2.95225427       0.00000000 NULL
P        0.00600926       3.26700107       0.46812644       0.00000000 NULL
