16
Lattice="5.532309999999999 0.0 0.0 0.0 5.66882 -5.49009137472214e-16 0.0 -1.7990357943900894 10.771609037957287" Properties=species:S:1:pos:R:3:initial_magmoms:R:1:castep_labels:S:1 n_minim_iter=1 pbc="T T T"
P        2.87337891       4.34901747       3.95920831       0.00000000 NULL
P        0.10722391      -0.47923326       6.81240073       0.00000000 NULL
P        3.29561920       2.60618145       1.21499118       0.00000000 NULL
P        0.52946420       1.26360276       9.55661786       0.00000000 NULL
P        4.86827624       4.73459034       4.11921194       0.00000000 NULL
P        2.10212124      -0.86480613       6.65239710       0.00000000 NULL
P        3.43891930       5.17258169       2.16661006       0.00000000 NULL
P        0.67276430      -1.30279748       8.60499898       0.00000000 NULL
P        3.41529689       0.42919518       5.32603286       0.00000000 NULL
P        0.64914189       3.44058903       5.44557618       0.00000000 NULL
P        3.71838284       4.23598860       8.46709545       0.00000000 NULL
P        0.95222784      -0.36620439       2.30451359       0.00000000 NULL
P        0.08404741       3.79925254       0.73342378       0.00000000 NULL
P        2.85020241       0.07053167      10.03818526       0.00000000 NULL
P        4.26856885       0.79110156       0.28551658       0.00000000 NULL
P        1.50241385       3.07868265      10.48609246       0.00000000 NULL
16
Lattice="5.538893108219133 0.0 0.0 0.0 5.671539345869383 -0.004109400241764 0.0 -1.807707273347108 10.792948392991978" Properties=species:S:1:pos:R:3:initial_magmoms:R:1:castep_labels:S:1 n_minim_iter=2 pbc="T T T"
P        2.87654414       4.34806925       3.96359545       0.00000000 NULL
P        0.10709759      -0.48423718       6.82524354       0.00000000 NULL
P        3.29962860       2.60655649       1.21543865       0.00000000 NULL
P        0.53018205       1.25727559       9.57340035       0.00000000 NULL
P        4.87432126       4.73394988       4.12339525       0.00000000 NULL
P        2.10487470      -0.87011780       6.66544374       0.00000000 NULL
P        3.44297109       5.17356907       2.16666506       0.00000000 NULL
P        0.67352454      -1.30973699       8.62217394       0.00000000 NULL
P        3.41932034       0.42558125       5.33557571       0.00000000 NULL
P        0.64987378       3.43825083       5.45326328       0.00000000 NULL
P        3.72281937       4.23184604       8.47977969       0.00000000 NULL
P        0.95337282      -0.36801396       2.30905930       0.00000000 NULL
P        0.08395983       3.80043065       0.73222509       0.00000000 NULL
P        2.85340638       0.06340142      10.05661391       0.00000000 NULL
P        4.27381877       0.79122355       0.28559626       0.00000000 NULL
P        1.50437222       3.07260853      10.50324274       0.00000000 NULL
16
Lattice="5.685307625830449 0.0 0.0 0.0 5.730878781624512 -0.10036515986157138 0.0 -2.009439411467308 11.279795715829705" Properties=species:S:1:pos:R:3:initial_magmoms:R:1:castep_labels:S:1 n_minim_iter=3 pbc="T T T"
P        2.94671141       4.32255206       4.06166214       0.00000000 NULL
P        0.10405760      -0.60111269       7.11776842       0.00000000 NULL
P        3.38893664       2.61328921       1.22442914       0.00000000 NULL
P        0.54628283       1.10815016       9.95500142       0.00000000 NULL
P        5.00904456       4.71528583       4.21638464       0.00000000 NULL
P        2.16639075      -0.99384646       6.96304592       0.00000000 NULL
P        3.53297884       5.19273649       2.16532637       0.00000000 NULL
P        0.69032502      -1.47129712       9.01410419       0.00000000 NULL
P        3.50873766       0.34054625       5.55263401       0.00000000 NULL
P        0.66608385       3.38089312       5.62679655       0.00000000 NULL
P        3.82151763       4.13158463       8.76669914       0.00000000 NULL
P        0.97886382      -0.41014525       2.41273142       0.00000000 NULL
P        0.08184153       3.82510424       0.70333246       0.00000000 NULL
P        2.92449534      -0.10366487      10.47609810       0.00000000 NULL
P        4.39072150       0.79348786       0.28716346       0.00000000 NULL
P        1.54806768       2.92795151      10.89226709       0.00000000 NULL
16
Lattice="5.65879781845345 0.0 0.0 0.0 5.691476779926403 -0.17242545068604068 0.0 -2.1338603083201204 11.358027040281476" Properties=species:S:1:pos:R:3:initial_magmoms:R:1:castep_labels:S:1 n_minim_iter=4 pbc="T T T"
P        2.93003210       4.24013678       4.02891908       0.00000000 NULL
P        0.10063319      -0.68252030       7.15668251       0.00000000 NULL
P        3.37528200       2.57966246       1.19766708       0.00000000 NULL
P        0.54588309       0.97795402       9.98793451       0.00000000 NULL
P        4.98945103       4.63101269       4.17705962       0.00000000 NULL
P        2.16005212      -1.07339621       7.00854197       0.00000000 NULL
P        3.51443645       5.12960603       2.10879061       0.00000000 NULL
P        0.68503754      -1.57198955       9.07681098       0.00000000 NULL
P        3.49141407       0.26925357       5.57335240       0.00000000 NULL
P        0.66201516       3.28836291       5.61224919       0.00000000 NULL
P        3.80440127       3.99442721       8.75671758       0.00000000 NULL
P        0.97500236      -0.43681073       2.42888401       0.00000000 NULL
P        0.07940614       3.78818889       0.66122485       0.00000000 NULL
P        2.90880505      -0.23057242      10.52437674       0.00000000 NULL
P        4.37165926       0.78437744       0.28021555       0.00000000 NULL
P        1.54226035       2.77323903      10.90538604       0.00000000 NULL
16
Lattice="5.579981614195329 0.0 0.0 0.0 5.5963584008333775 -0.37938722797786195 0.0 -2.4969323377893153 11.635232359173603" Properties=species:S:1:pos:R:3:initial_magmoms:R:1:castep_labels:S:1 n_minim_iter=5 pbc="T T T"
P        2.87852047       4.01552960       3.95357106       0.00000000 NULL
P        0.08852966      -0.91610353       7.30227408       0.00000000 NULL
P        3.33571411       2.49252927       1.12832425       0.00000000 NULL
P        0.54572330       0.60689679      10.12752088       0.00000000 NULL
P        4.93451573       4.40441141       4.08440763       0.00000000 NULL
P        2.14452493      -1.30498534       7.17143751       0.00000000 NULL
P        3.45722782       4.96467143       1.95714296       0.00000000 NULL
P        0.66723701      -1.86524537       9.29870217       0.00000000 NULL
P        3.43924322       0.06664764       5.65877459       0.00000000 NULL
P        0.64925241       3.03277843       5.59707054       0.00000000 NULL
P        3.75415131       3.61352190       8.76971850       0.00000000 NULL
P        0.96416050      -0.51409584       2.48612663       0.00000000 NULL
P        0.07141993       3.69291748       0.54610574       0.00000000 NULL
P        2.86141074      -0.59349141      10.70973940       0.00000000 NULL
P        4.31541442       0.75954863       0.26192343       0.00000000 NULL
P        1.52542361       2.33987744      10.99392170       0.00000000 NULL
16
Lattice="5.549450325279801 0.0 0.0 0.0 5.660452008753097 -0.371428735521373 0.0 -2.502150518215991 11.796440232520975" Properties=species:S:1:pos:R:3:initial_magmoms:R:1:castep_labels:S:1 n_minim_iter=6 pbc="T T T"
P        2.85424424       4.06403840       4.01754539       0.00000000 NULL
P        0.07951908      -0.90573691       7.40746611       0.00000000 NULL
P        3.32157285       2.52764702       1.15439767       0.00000000 NULL
P        0.54684768       0.63065447      10.27061383       0.00000000 NULL
P        4.92031163       4.46531468       4.15457517       0.00000000 NULL
P        2.14558646      -1.30701319       7.27043633       0.00000000 NULL
P        3.43054563       5.02583612       1.99681186       0.00000000 NULL
P        0.65582047      -1.86753463       9.42819964       0.00000000 NULL
P        3.41772532       0.08108156       5.74035602       0.00000000 NULL
P        0.64300016       3.07721993       5.68465548       0.00000000 NULL
P        3.73629986       3.67164187       8.90512990       0.00000000 NULL
P        0.96157470      -0.51334038       2.51988160       0.00000000 NULL
P        0.06755007       3.73311000       0.56840999       0.00000000 NULL
P        2.84227524      -0.57480850      10.85660151       0.00000000 NULL
P        4.29467761       0.76545415       0.26787149       0.00000000 NULL
P        1.51995245       2.39284735      11.15714001       0.00000000 NULL
16
Lattice="5.491739064838621 0.0 0.0 0.0 5.636772510973844 -0.38450493898838445 0.0 -2.519482429857108 11.742047209534082" Properties=species:S:1:pos:R:3:initial_magmoms:R:1:castep_labels:S:1 n_minim_iter=7 pbc="T T T"
P        2.82213668       4.03546755       3.98520660       0.00000000 NULL
P        0.07626714      -0.91817747       7.37233567       0.00000000 NULL
P        3.28875595       2.51494529       1.14197950       0.00000000 NULL
P        0.54288642       0.60234480      10.21556277       0.00000000 NULL
P        4.87327038       4.43650858       4.12199111       0.00000000 NULL
P        2.12740085      -1.31921849       7.23555116       0.00000000 NULL
P        3.39191935       4.99878901       1.97351564       0.00000000 NULL
P        0.64604982      -1.88149892       9.38402663       0.00000000 NULL
P        3.38114368       0.06688222       5.70988444       0.00000000 NULL
P        0.63527415       3.05040786       5.64765784       0.00000000 NULL
P        3.69842120       3.63410241       8.84993139       0.00000000 NULL
P        0.95255167      -0.51681233       2.50761088       0.00000000 NULL
P        0.06613643       3.71458367       0.55674582       0.00000000 NULL
P        2.81200596      -0.59729358      10.80079645       0.00000000 NULL
P        4.25031128       0.76092532       0.26472151       0.00000000 NULL
P        1.50444175       2.35636476      11.09282076       0.00000000 NULL
16
Lattice="5.478546501183116 0.0 0.0 0.0 5.645350717866298 -0.3906215452057627 0.0 -2.5338272480139605 11.762665656412478" Properties=species:S:1:pos:R:3:initial_magmoms:R:1:castep_labels:S:1 n_minim_iter=8 pbc="T T T"
P        2.81262488       4.03612156       3.98663651       0.00000000 NULL
P        0.07335163      -0.92459808       7.38540760       0.00000000 NULL
P        3.28230151       2.51865740       1.14190271       0.00000000 NULL
P        0.54302826       0.59286607      10.23014140       0.00000000 NULL
P        4.86595122       4.43967970       4.12473863       0.00000000 NULL
P        2.12667797      -1.32815622       7.24730548       0.00000000 NULL
P        3.38119848       5.00413729       1.97180391       0.00000000 NULL
P        0.64192523      -1.89261382       9.40024020       0.00000000 NULL
P        3.37200252       0.06209479       5.71836135       0.00000000 NULL
P        0.63272927       3.04942869       5.65368276       0.00000000 NULL
P        3.69025134       3.63081338       8.86047437       0.00000000 NULL
P        0.95097809      -0.51928991       2.51156975       0.00000000 NULL
P        0.06509891       3.71822619       0.55532836       0.00000000 NULL
P        2.80437216      -0.60670271      10.81671575       0.00000000 NULL
P        4.24075490       0.76086689       0.26467789       0.00000000 NULL
P        1.50148165       2.35065658      11.10736622       0.00000000 NULL
16
Lattice="5.4434811621921275 0.0 0.0 0.0 5.657931677931051 -0.4041181531915304 0.0 -2.5634654764363702 11.792289889708693" Properties=species:S:1:pos:R:3:initial_magmoms:R:1:castep_labels:S:1 n_minim_iter=9 pbc="T T T"
P        2.78913314       4.03306334       3.98396208       0.00000000 NULL
P        0.06739256      -0.93859713       7.40420966       0.00000000 NULL
P        3.26434725       2.52378172       1.13966519       0.00000000 NULL
P        0.54260666       0.57068449      10.24850654       0.00000000 NULL
P        4.84384339       4.44125775       4.12478842       0.00000000 NULL
P        2.12210281      -1.34679154       7.26338332       0.00000000 NULL
P        3.35416427       5.01012254       1.96493793       0.00000000 NULL
P        0.63242369      -1.91565633       9.42323381       0.00000000 NULL
P        3.34825596       0.05089826       5.72916661       0.00000000 NULL
P        0.62651538       3.04356794       5.65900513       0.00000000 NULL
P        3.66808145       3.61884392       8.87132992       0.00000000 NULL
P        0.94634087      -0.52437771       2.51684182       0.00000000 NULL
P        0.06297819       3.72216614       0.55075507       0.00000000 NULL
P        2.78471877      -0.62769993      10.83741667       0.00000000 NULL
P        4.21482257       0.76003705       0.26409553       0.00000000 NULL
P        1.49308199       2.33442915      11.12407621       0.00000000 NULL
16
Lattice="5.123739467720685 0.0 0.0 0.0 5.787486627135624 -0.5337729803193026 0.0 -2.8509441931117565 12.107153490343915" Properties=species:S:1:pos:R:3:initial_magmoms:R:1:castep_labels:S:1 n_minim_iter=10 pbc="T T T"
P        2.57603546       4.01100905       3.96757872       0.00000000 NULL
P        0.01416572      -1.07446662       7.60580179       0.00000000 NULL
P        3.10120779       2.57787797       1.11944344       0.00000000 NULL
P        0.53933805       0.35866446      10.45393708       0.00000000 NULL
P        4.64357769       4.46260392       4.14006737       0.00000000 NULL
P        2.08170796      -1.52606148       7.43331314       0.00000000 NULL
P        3.10704561       5.07550375       1.90668505       0.00000000 NULL
P        0.54517588      -2.13896131       9.66669546       0.00000000 NULL
P        3.13062506      -0.05644982       5.84666051       0.00000000 NULL
P        0.56875532       2.99299226       5.72672000       0.00000000 NULL
P        3.46458831       3.50798925       9.00219381       0.00000000 NULL
P        0.90271857      -0.57144681       2.57118670       0.00000000 NULL
P        0.04489488       3.76299233       0.50823610       0.00000000 NULL
P        2.60676462      -0.82644989      11.06514441       0.00000000 NULL
P        3.97714075       0.75228546       0.25981113       0.00000000 NULL
P        1.41527102       2.18425698      11.31356939       0.00000000 NULL
16
Lattice="5.50777252413829 0.0 0.0 0.0 5.704891734591106 -0.514497990756033 0.0 -2.7881068089810817 11.778946433447754" Properties=species:S:1:pos:R:3:initial_magmoms:R:1:castep_labels:S:1 n_minim_iter=11 pbc="T T T"
P        2.76080258       3.96003421       3.85418913       0.00000000 NULL
P        0.00691632      -1.04324928       7.41025931       0.00000000 NULL
P        3.34331620       2.55027132       1.08725888       0.00000000 NULL
P        0.58942994       0.36651361      10.17718957       0.00000000 NULL
P        5.01805291       4.40668034       4.04555657       0.00000000 NULL
P        2.26416665      -1.48989541       7.21889188       0.00000000 NULL
P        3.33135053       5.00441901       1.86789861       0.00000000 NULL
P        0.57746427      -2.08763408       9.39654983       0.00000000 NULL
P        3.35620065      -0.04816148       5.68484040       0.00000000 NULL
P        0.60231439       2.96494641       5.57960804       0.00000000 NULL
P        3.71544434       3.46641458       8.77184332       0.00000000 NULL
P        0.96155807      -0.54962965       2.49260513       0.00000000 NULL
P        0.04890292       3.70104295       0.49678300       0.00000000 NULL
P        2.80278918      -0.78425802      10.76766544       0.00000000 NULL
P        4.27326804       0.73572918       0.25593913       0.00000000 NULL
P        1.51938178       2.18105575      11.00850931       0.00000000 NULL
16
Lattice="5.21358790721044 0.0 0.0 0.0 5.63120909722022 -0.49033448248709904 0.0 -2.718808865826468 11.651945295247936" Properties=species:S:1:pos:R:3:initial_magmoms:R:1:castep_labels:S:1 n_minim_iter=12 pbc="T T T"
P        2.61624027       3.92092465       3.82730681       0.00000000 NULL
P        0.00944632      -1.00852441       7.33430401       0.00000000 NULL
P        3.16761009       2.52319131       1.08456860       0.00000000 NULL
P        0.56081613       0.38920892      10.07704222       0.00000000 NULL
P        4.75051911       4.36214010       4.02104479       0.00000000 NULL
P        2.14372516      -1.44973986       7.14056602       0.00000000 NULL
P        3.14853965       4.94559421       1.86656424       0.00000000 NULL
P        0.54174570      -2.03319398       9.29504657       0.00000000 NULL
P        3.17525756      -0.03204773       5.62750584       0.00000000 NULL
P        0.56846361       2.94444797       5.53410497       0.00000000 NULL
P        3.51817862       3.44674910       8.69697434       0.00000000 NULL
P        0.91138466      -0.53434887       2.46463647       0.00000000 NULL
P        0.04631469       3.65421461       0.50419094       0.00000000 NULL
P        2.65310864      -0.74181437      10.65741987       0.00000000 NULL
P        4.04410387       0.72676789       0.25438985       0.00000000 NULL
P        1.43730992       2.18563234      10.90722097       0.00000000 NULL
16
Lattice="5.25780125257055 0.0 0.0 0.0 5.709810364836494 -0.48046138221646845 0.0 -2.7249931013143427 11.86682849191069" Properties=species:S:1:pos:R:3:initial_magmoms:R:1:castep_labels:S:1 n_minim_iter=13 pbc="T T T"
P        2.63842498       3.98577464       3.91374648       0.00000000 NULL
P        0.00952436      -1.00095737       7.47262063       0.00000000 NULL
P        3.19556045       2.56330874       1.11509987       0.00000000 NULL
P        0.56665982       0.42150853      10.27126724       0.00000000 NULL
P        4.79321275       4.43512406       4.11412710       0.00000000 NULL
P        2.16431212      -1.45030679       7.27224001       0.00000000 NULL
P        3.17367337       5.02161500       1.91930056       0.00000000 NULL
P        0.54477274      -2.03679774       9.46706655       0.00000000 NULL
P        3.20104381      -0.01565048       5.73551099       0.00000000 NULL
P        0.57214318       3.00046775       5.65085612       0.00000000 NULL
P        3.54711764       3.51821187       8.87658955       0.00000000 NULL
P        0.91821701      -0.53339460       2.50977757       0.00000000 NULL
P        0.04610190       3.70517010       0.52747054       0.00000000 NULL
P        2.67500252      -0.72035283      10.85889657       0.00000000 NULL
P        4.07911708       0.73595546       0.26187741       0.00000000 NULL
P        1.45021645       2.24886181      11.12448970       0.00000000 NULL
16
Lattice="5.224887632156097 0.0 0.0 0.0 5.7090674196605065 -0.48743267873669366 0.0 -2.7380038329372667 11.896119386545877" Properties=species:S:1:pos:R:3:initial_magmoms:R:1:castep_labels:S:1 n_minim_iter=14 pbc="T T T"
P        2.62245841       3.98000429       3.91766764       0.00000000 NULL
P        0.01001459      -1.00894070       7.49101907       0.00000000 NULL
P        3.17678046       2.56228182       1.11473853       0.00000000 NULL
P        0.56433664       0.40878177      10.29394818       0.00000000 NULL
P        4.76476895       4.42925897       4.11961880       0.00000000 NULL
P        2.15232513      -1.45819538       7.28906791       0.00000000 NULL
P        3.15210221       5.01824355       1.91871906       0.00000000 NULL
P        0.53965839      -2.04717996       9.48996765       0.00000000 NULL
P        3.18000610      -0.02231897       5.74769524       0.00000000 NULL
P        0.56756229       2.99338256       5.66099147       0.00000000 NULL
P        3.52437159       3.50624723       8.89374414       0.00000000 NULL
P        0.91192777      -0.53518363       2.51494257       0.00000000 NULL
P        0.04576654       3.70246104       0.52499464       0.00000000 NULL
P        2.65821035      -0.73139744      10.88369207       0.00000000 NULL
P        4.05353792       0.73479668       0.26167936       0.00000000 NULL
P        1.44109410       2.23626691      11.14700735       0.00000000 NULL
16
Lattice="5.205218306462236 0.0 0.0 0.0 5.716001769605262 -0.4962536655134606 0.0 -2.7569656917808616 11.946812964183154" Properties=species:S:1:pos:R:3:initial_magmoms:R:1:castep_labels:S:1 n_minim_iter=15 pbc="T T T"
P        2.61316870       3.97853968       3.92736474       0.00000000 NULL
P        0.01055955      -1.01950359       7.52319456       0.00000000 NULL
P        3.16649995       2.56484064       1.11581630       0.00000000 NULL
P        0.56389080       0.39419544      10.33474300       0.00000000 NULL
P        4.74934942       4.42843517       4.13207950       0.00000000 NULL
P        2.14674027      -1.46939909       7.31847981       0.00000000 NULL
P        3.13799759       5.02117700       1.92089280       0.00000000 NULL
P        0.53538844      -2.06214091       9.52966650       0.00000000 NULL
P        3.16658258      -0.03006899       5.76969398       0.00000000 NULL
P        0.56397343       2.98910507       5.68086532       0.00000000 NULL
P        3.51006162       3.49667557       8.92643077       0.00000000 NULL
P        0.90745247      -0.53763949       2.52412853       0.00000000 NULL
P        0.04556941       3.70390807       0.52287212       0.00000000 NULL
P        2.64817857      -0.74487199      10.92768719       0.00000000 NULL
P        4.03825701       0.73409334       0.26188007       0.00000000 NULL
P        1.43564786       2.22494274      11.18867923       0.00000000 NULL
