2
Lattice="2.35404 -4.308658703393564e-17 -6.6869055263116935e-16 0.037418422272241604 4.563366591900615 3.3276079966469976e-16 1.068622823423061 2.200007964351357 4.112203301692404" Properties=species:S:1:pos:R:3:initial_magmoms:R:1:castep_labels:S:1 n_minim_iter=1 pbc="T T T"
P        0.51850130       3.20239045       0.87799241       0.00000000 NULL
P        1.44635402       3.61697820       2.60064455       0.00000000 NULL
2
Lattice="2.3553920824426866 9.060285467068157e-05 0.00043674644701516995 0.037615550117106135 4.56321003242727 0.0005906141288780737 1.0700842188711823 2.20049888819883 4.114318987123108" Properties=species:S:1:pos:R:3:initial_magmoms:R:1:castep_labels:S:1 n_minim_iter=2 pbc="T T T"
P        0.51897467       3.20234262       0.87856967       0.00000000 NULL
P        1.44791706       3.61731048       2.60268802       0.00000000 NULL
2
Lattice="2.4601706715511624 0.007201911323609754 0.03462463184313638 0.05306650124122077 4.551468459827336 0.04580697899351901 1.1840165489079801 2.2382682409696515 4.276870658754952" Properties=species:S:1:pos:R:3:initial_magmoms:R:1:castep_labels:S:1 n_minim_iter=3 pbc="T T T"
P        0.55544340       3.19874699       0.92248243       0.00000000 NULL
P        1.57002534       3.64318054       2.76022907       0.00000000 NULL
2
Lattice="2.5065633069336823 0.007413371006143659 0.044596992230551746 0.05421385101942082 4.537749141571802 0.05835368606404652 1.2226946577357911 2.242911920309677 4.307427084004907" Properties=species:S:1:pos:R:3:initial_magmoms:R:1:castep_labels:S:1 n_minim_iter=4 pbc="T T T"
P        0.56646329       3.19001257       0.93173960       0.00000000 NULL
P        1.61307720       3.64102813       2.79477502       0.00000000 NULL
2
Lattice="2.5733849192984604 0.005826166407426219 0.056371624649159596 0.052199171093876964 4.516920330796341 0.06912939264094932 1.272113919779218 2.2417036506944337 4.311803114294691" Properties=species:S:1:pos:R:3:initial_magmoms:R:1:castep_labels:S:1 n_minim_iter=5 pbc="T T T"
P        0.57945943       3.17654549       0.93824555       0.00000000 NULL
P        1.66865710       3.63015372       2.80878222       0.00000000 NULL
