8
Lattice="3.8907400000000014 -5.48395120644582e-16 -4.155249222774773e-16 0.2688700897447948 4.680553863352139 -1.2645396724810418e-15 0.02661198139559417 1.0176109099125668 9.695788811895252" Properties=species:S:1:pos:R:3:initial_magmoms:R:1:castep_labels:S:1 n_minim_iter=1 pbc="T T T"
P        1.49780689       0.13227831       0.54422850       0.00000000 NULL
P        1.31619367       2.16081267       0.86340515       0.00000000 NULL
P        3.63830529       4.74994660       4.15370889       0.00000000 NULL
P        3.37019316       2.94143628       5.12952895       0.00000000 NULL
P        1.70875374       4.87968292       4.70184868       0.00000000 NULL
P        1.43993268       1.25000272       2.94455386       0.00000000 NULL
P        0.33314269       1.14539174       7.27958757       0.00000000 NULL
P        4.06990383       3.33330654       2.74742102       0.00000000 NULL
8
Lattice="3.8957934156444516 0.0005922504208877958 -0.0002611074334689701 0.2699317829736919 4.685726743467368 6.147962809553574e-05 0.026150763056841136 1.0188954447097933 9.700351158369324" Properties=species:S:1:pos:R:3:initial_magmoms:R:1:castep_labels:S:1 n_minim_iter=2 pbc="T T T"
P        1.49976551       0.13257031       0.54440666       0.00000000 NULL
P        1.31816088       2.16350848       0.86367139       0.00000000 NULL
P        3.64351334       4.75599593       4.15539192       0.00000000 NULL
P        3.37463604       2.94512342       5.13180778       0.00000000 NULL
P        1.71137078       4.88534163       4.70452259       0.00000000 NULL
P        1.44182128       1.25184299       2.94561671       0.00000000 NULL
P        0.33327998       1.14682972       7.28293742       0.00000000 NULL
P        4.07548146       3.33735078       2.74841348       0.00000000 NULL
8
Lattice="4.1104094404389935 0.027012707210594313 -0.011314294743761161 0.3165466174128402 4.903651931120164 0.002896946971820982 0.006984160527295261 1.0735148311671936 9.886563900487513" Properties=species:S:1:pos:R:3:initial_magmoms:R:1:castep_labels:S:1 n_minim_iter=3 pbc="T T T"
P        1.58300406       0.14543495       0.55164143       0.00000000 NULL
P        1.40245380       2.27767048       0.87440463       0.00000000 NULL
P        3.86642248       5.01257086       4.22388677       0.00000000 NULL
P        3.56423694       3.10184217       5.22463597       0.00000000 NULL
P        1.82404850       5.12448352       4.81462661       0.00000000 NULL
P        1.52257295       1.33035414       2.98850408       0.00000000 NULL
P        0.33959263       1.20790138       7.41952494       0.00000000 NULL
P        4.31333095       3.50886352       2.78870378       0.00000000 NULL
8
Lattice="4.207391543025354 0.06443630777414959 -0.005553145983052857 0.36826910846192795 4.950022819474437 0.015974293677576506 0.03179240570151841 1.1095552147539527 9.781356700279451" Properties=species:S:1:pos:R:3:initial_magmoms:R:1:castep_labels:S:1 n_minim_iter=4 pbc="T T T"
P        1.62313098       0.16447887       0.55204559       0.00000000 NULL
P        1.45776598       2.31272264       0.86929152       0.00000000 NULL
P        4.01088050       5.10565891       4.19356359       0.00000000 NULL
P        3.68365218       3.17625650       5.17749040       0.00000000 NULL
P        1.92025043       5.19854225       4.79183735       0.00000000 NULL
P        1.57516365       1.37091543       2.95284544       0.00000000 NULL
P        0.36983351       1.24175861       7.33947399       0.00000000 NULL
P        4.44813704       3.57537861       2.77493614       0.00000000 NULL
8
Lattice="4.3023407929318 0.12585767506262172 0.008011339447605506 0.4487203931270485 4.981530677920228 0.025543436202360877 0.0823093323540889 1.133783459173831 9.550166236621317" Properties=species:S:1:pos:R:3:initial_magmoms:R:1:castep_labels:S:1 n_minim_iter=5 pbc="T T T"
P        1.66450830       0.19433597       0.55090615       0.00000000 NULL
P        1.52836777       2.34696068       0.85147997       0.00000000 NULL
P        4.19316296       5.20210804       4.11442983       0.00000000 NULL
P        3.82969427       3.25755382       5.06632151       0.00000000 NULL
P        2.05468975       5.26094287       4.71082411       0.00000000 NULL
P        1.64141365       1.41628999       2.87816262       0.00000000 NULL
P        0.42175070       1.26742782       7.16326499       0.00000000 NULL
P        4.60320403       3.64662999       2.73255305       0.00000000 NULL
8
Lattice="4.404251965746163 0.2175275803481793 0.02602288211628092 0.5660417241638275 5.022420400347164 0.007777518457909366 0.15186742872035808 1.1025425629770627 9.195003903530656" Properties=species:S:1:pos:R:3:initial_magmoms:R:1:castep_labels:S:1 n_minim_iter=6 pbc="T T T"
P        1.71034517       0.23565363       0.54784498       0.00000000 NULL
P        1.62109870       2.39250266       0.80624074       0.00000000 NULL
P        4.42735287       5.31535235       3.96526747       0.00000000 NULL
P        4.01042065       3.33981929       4.87755012       0.00000000 NULL
P        2.23336265       5.31345058       4.55234029       0.00000000 NULL
P        1.72594611       1.46166786       2.75834209       0.00000000 NULL
P        0.49344559       1.25403787       6.88752165       0.00000000 NULL
P        4.78640457       3.72594496       2.64235656       0.00000000 NULL
8
Lattice="4.450379729015201 0.2661116942095715 0.03583595594446492 0.6276759987957378 5.046835573405854 -0.024468941604026212 0.1893443012241303 1.0392496432132334 9.012934031457604" Properties=species:S:1:pos:R:3:initial_magmoms:R:1:castep_labels:S:1 n_minim_iter=7 pbc="T T T"
P        1.73118672       0.25504497       0.54674766       0.00000000 NULL
P        1.66941642       2.41749600       0.76905112       0.00000000 NULL
P        4.54570206       5.36081554       3.87139260       0.00000000 NULL
P        4.09991043       3.36088538       4.77023539       0.00000000 NULL
P        2.32251945       5.31914333       4.45080871       0.00000000 NULL
P        1.76954684       1.47060162       2.69390362       0.00000000 NULL
P        0.53293120       1.21215153       6.74179076       0.00000000 NULL
P        4.87183295       3.75236795       2.58061063       0.00000000 NULL
8
Lattice="4.457466258159869 0.2736593026054372 0.037621299660116896 0.6372454748757235 5.050036773787495 -0.030758875727371154 0.19581593151881463 1.0265986486311836 8.983199250024061" Properties=species:S:1:pos:R:3:initial_magmoms:R:1:castep_labels:S:1 n_minim_iter=8 pbc="T T T"
P        1.73440161       0.25793006       0.54664745       0.00000000 NULL
P        1.67719164       2.42125329       0.76231886       0.00000000 NULL
P        4.56444016       5.36635568       3.85554336       0.00000000 NULL
P        4.11411940       3.36258142       4.75243632       0.00000000 NULL
P        2.33642755       5.31795280       4.43332941       0.00000000 NULL
P        1.77655415       1.47080026       2.68341417       0.00000000 NULL
P        0.53969093       1.20348908       6.71773959       0.00000000 NULL
P        4.88482917       3.75477243       2.56992392       0.00000000 NULL
8
Lattice="4.514019030875362 0.3332154111419497 0.051197004639289785 0.7127994627988758 5.076395096899464 -0.08063228090603136 0.24561033967374926 0.9265854693982055 8.755123856222223" Properties=species:S:1:pos:R:3:initial_magmoms:R:1:castep_labels:S:1 n_minim_iter=9 pbc="T T T"
P        1.75998625       0.28056773       0.54575493       0.00000000 NULL
P        1.73909946       2.45209696       0.70959376       0.00000000 NULL
P        4.71274905       5.41120968       3.73257552       0.00000000 NULL
P        4.22618252       3.37670290       4.61509939       0.00000000 NULL
P        2.44552407       5.30903942       4.29769666       0.00000000 NULL
P        1.83178478       1.47235630       2.60273407       0.00000000 NULL
P        0.59225230       1.13529158       6.53295088       0.00000000 NULL
P        4.98680194       3.77376121       2.48684567       0.00000000 NULL
8
Lattice="4.595248939959426 0.4114283446860382 0.06266384076991921 0.8125028974178119 5.12383823170944 -0.14874110636255308 0.2951978332516349 0.7935308262186676 8.540809290419036" Properties=species:S:1:pos:R:3:initial_magmoms:R:1:castep_labels:S:1 n_minim_iter=10 pbc="T T T"
P        1.79490660       0.30977422       0.54609080       0.00000000 NULL
P        1.82543560       2.50301103       0.64272635       0.00000000 NULL
P        4.90970044       5.48327372       3.60157762       0.00000000 NULL
P        4.37115490       3.40299549       4.47519956       0.00000000 NULL
P        2.58159968       5.30615836       4.15525178       0.00000000 NULL
P        1.90216352       1.47362035       2.52211320       0.00000000 NULL
P        0.65091371       1.04637903       6.35281075       0.00000000 NULL
P        5.11880078       3.80248672       2.39217676       0.00000000 NULL
8
Lattice="4.7473023932814 0.5506512370140874 0.0654900566163694 0.9904954829397932 5.109396851152402 -0.2615558414085046 0.3396941423850055 0.5551508019492833 8.260463623285363" Properties=species:S:1:pos:R:3:initial_magmoms:R:1:castep_labels:S:1 n_minim_iter=11 pbc="T T T"
P        1.85671585       0.35999077       0.54187207       0.00000000 NULL
P        1.98717247       2.55353994       0.53161137       0.00000000 NULL
P        5.25566025       5.51656218       3.40456870       0.00000000 NULL
P        4.61343958       3.40331834       4.27290246       0.00000000 NULL
P        2.80020540       5.20264777       3.94705082       0.00000000 NULL
P        2.01770455       1.45230236       2.40981986       0.00000000 NULL
P        0.72340713       0.88061873       6.10734143       0.00000000 NULL
P        5.33685067       3.78971309       2.23988550       0.00000000 NULL
8
Lattice="4.814200356541353 0.6278212200821364 0.028643618101604797 1.0879538388745051 5.105204249588064 -0.26168511936343203 0.26851334329070675 0.558614507191668 8.442828639569294" Properties=species:S:1:pos:R:3:initial_magmoms:R:1:castep_labels:S:1 n_minim_iter=12 pbc="T T T"
P        1.87192588       0.38881609       0.54019220       0.00000000 NULL
P        2.08162796       2.60628234       0.50489850       0.00000000 NULL
P        5.40573872       5.60591977       3.47580749       0.00000000 NULL
P        4.67884885       3.48432156       4.34830974       0.00000000 NULL
P        2.85389815       5.20223903       4.04671789       0.00000000 NULL
P        2.05781582       1.48973306       2.45682363       0.00000000 NULL
P        0.69086304       0.89271817       6.21787583       0.00000000 NULL
P        5.38899888       3.80600671       2.24321669       0.00000000 NULL
8
Lattice="4.79055196687429 0.6380152389240804 0.035188943096374034 1.0985830018670573 4.975076308369434 -0.27174147015132877 0.2873288650521342 0.5084708829721591 8.246762172927433" Properties=species:S:1:pos:R:3:initial_magmoms:R:1:castep_labels:S:1 n_minim_iter=13 pbc="T T T"
P        1.86436177       0.39044308       0.53198884       0.00000000 NULL
P        2.08491271       2.54842488       0.48434104       0.00000000 NULL
P        5.40925344       5.46982665       3.39065958       0.00000000 NULL
P        4.67570147       3.40484605       4.24589319       0.00000000 NULL
P        2.85675610       5.05433373       3.94519039       0.00000000 NULL
P        2.06098093       1.45239340       2.39813531       0.00000000 NULL
P        0.70601170       0.84678471       6.06597015       0.00000000 NULL
P        5.36780803       3.71520473       2.18763270       0.00000000 NULL
8
Lattice="4.816846483947036 0.6547558057952498 0.02707240001876252 1.1205389624577662 5.003744610757726 -0.27711018911108987 0.2716605976074319 0.5046072872558306 8.285704634700771" Properties=species:S:1:pos:R:3:initial_magmoms:R:1:castep_labels:S:1 n_minim_iter=14 pbc="T T T"
P        1.87205510       0.39560983       0.53109715       0.00000000 NULL
P        2.10816752       2.57280974       0.47780422       0.00000000 NULL
P        5.45213314       5.51221540       3.39925845       0.00000000 NULL
P        4.69965282       3.43459957       4.25978209       0.00000000 NULL
P        2.87360080       5.07955509       3.96008238       0.00000000 NULL
P        2.07553498       1.46520429       2.40697542       0.00000000 NULL
P        0.69883212       0.84874580       6.08987452       0.00000000 NULL
P        5.39266173       3.74017861       2.18468294       0.00000000 NULL
8
Lattice="4.828430047452791 0.6663039849582726 0.022943413826955975 1.135231886774356 4.992800814163429 -0.28192123259658347 0.26447071510678577 0.4927584253801284 8.268010462007899" Properties=species:S:1:pos:R:3:initial_magmoms:R:1:castep_labels:S:1 n_minim_iter=15 pbc="T T T"
P        1.87519989       0.39889818       0.52841672       0.00000000 NULL
P        2.12274222       2.57482916       0.46958656       0.00000000 NULL
P        5.47828884       5.50813748       3.38672035       0.00000000 NULL
P        4.71273609       3.43557792       4.24673289       0.00000000 NULL
P        2.88257139       5.06262687       3.94796113       0.00000000 NULL
P        2.08518575       1.46516132       2.40009733       0.00000000 NULL
P        0.69626457       0.84103925       6.07219835       0.00000000 NULL
P        5.40239714       3.73513089       2.17069225       0.00000000 NULL
8
Lattice="4.911462358908215 0.7360341266563832 -0.005116208274731709 1.2248550919101207 4.942439751829357 -0.30589390174013037 0.21335129752295423 0.43559588049992565 8.190434410706711" Properties=species:S:1:pos:R:3:initial_magmoms:R:1:castep_labels:S:1 n_minim_iter=16 pbc="T T T"
P        1.89816582       0.41950950       0.51202999       0.00000000 NULL
P        2.21600689       2.59594869       0.42335291       0.00000000 NULL
P        5.64677241       5.50439363       3.32624076       0.00000000 NULL
P        4.79905283       3.45765817       4.18458510       0.00000000 NULL
P        2.93646417       4.98057346       3.89271269       0.00000000 NULL
P        2.14929557       1.47375297       2.36814007       0.00000000 NULL
P        0.67545572       0.80706857       5.98707270       0.00000000 NULL
P        5.46946265       3.71758182       2.09366232       0.00000000 NULL
8
Lattice="5.138471490568458 0.7932415069911436 -0.04523922378056908 1.3093629723237443 4.848489058323051 -0.2909495392325715 0.12987918998134143 0.4514026011238213 8.10708969750908" Properties=species:S:1:pos:R:3:initial_magmoms:R:1:castep_labels:S:1 n_minim_iter=17 pbc="T T T"
P        1.97266938       0.44354686       0.48338476       0.00000000 NULL
P        2.35206237       2.59587581       0.39070997       0.00000000 NULL
P        5.93162440       5.47032755       3.29930094       0.00000000 NULL
P        4.98815440       3.49893273       4.14268736       0.00000000 NULL
P        3.01068587       4.87331304       3.86113378       0.00000000 NULL
P        2.28505334       1.50190341       2.34788453       0.00000000 NULL
P        0.62987945       0.82789804       5.89218231       0.00000000 NULL
P        5.64454553       3.67677217       2.01500711       0.00000000 NULL
8
Lattice="5.031490875584564 0.8113465732781479 -0.040059949935824 1.32375042828436 4.816327466543036 -0.32284866635301174 0.1467896214777472 0.3774414787546669 7.7292833644895085" Properties=species:S:1:pos:R:3:initial_magmoms:R:1:castep_labels:S:1 n_minim_iter=18 pbc="T T T"
P        1.93237725       0.44722554       0.45951487       0.00000000 NULL
P        2.32392514       2.58714442       0.34796324       0.00000000 NULL
P        5.86434398       5.41731773       3.11497193       0.00000000 NULL
P        4.92686635       3.47162391       3.93730761       0.00000000 NULL
P        2.98336970       4.79227225       3.64153320       0.00000000 NULL
P        2.25757881       1.48705384       2.23700565       0.00000000 NULL
P        0.62704298       0.77932046       5.59919414       0.00000000 NULL
P        5.55502912       3.64497693       1.89117759       0.00000000 NULL
8
Lattice="5.1169229894004005 0.819832468101074 -0.05358660353039036 1.3398627431412269 4.912244713360451 -0.3126510577430974 0.11588477571346001 0.4212863893244375 7.948369720449471" Properties=species:S:1:pos:R:3:initial_magmoms:R:1:castep_labels:S:1 n_minim_iter=19 pbc="T T T"
P        1.96072057       0.45280672       0.46534796       0.00000000 NULL
P        2.36076348       2.64207527       0.36019019       0.00000000 NULL
P        5.94291000       5.53494501       3.21187074       0.00000000 NULL
P        4.98782277       3.55473607       4.05355426       0.00000000 NULL
P        3.01608860       4.90043884       3.75603365       0.00000000 NULL
P        2.28924060       1.52699600       2.30438207       0.00000000 NULL
P        0.60723614       0.82177978       5.75970625       0.00000000 NULL
P        5.63355316       3.71793738       1.94026849       0.00000000 NULL
8
Lattice="5.115704634860256 0.8103308685103876 -0.05259721700818045 1.3283481398095291 4.880549085890435 -0.3121193049759757 0.11585689632270692 0.4154330255869291 7.920592144941836" Properties=species:S:1:pos:R:3:initial_magmoms:R:1:castep_labels:S:1 n_minim_iter=20 pbc="T T T"
P        1.96068598       0.44991273       0.46315953       0.00000000 NULL
P        2.35401569       2.62270649       0.35844824       0.00000000 NULL
P        5.93113567       5.49272921       3.20218092       0.00000000 NULL
P        4.98183301       3.52854113       4.04165407       0.00000000 NULL
P        3.00562596       4.86331915       3.74220467       0.00000000 NULL
P        2.28706427       1.51565241       2.29791561       0.00000000 NULL
P        0.60379701       0.81472905       5.73809747       0.00000000 NULL
P        5.62566003       3.68794207       1.93257429       0.00000000 NULL
