2
Lattice="2.8579099999999995 -1.7381834614388564e-16 -2.490324927412957e-18 1.3422218784125688 3.5626893505764197 -2.8987502029046154e-16 0.24802422718800748 0.6801411510761932 4.4447072744715745" Properties=species:S:1:pos:R:3:initial_magmoms:R:1:castep_labels:S:1 n_minim_iter=1 pbc="T T T"
P        4.19839710       3.67101132       3.88265848       0.00000000 NULL
P        3.53566615       3.47345982       1.37557245       0.00000000 NULL
2
Lattice="2.8565083731993055 -3.5028897382190696e-05 5.370525491560472e-06 1.341519934951463 3.5620513781606298 0.00039149828986490573 0.2479026027894397 0.680504733701691 4.446244894795509" Properties=species:S:1:pos:R:3:initial_magmoms:R:1:castep_labels:S:1 n_minim_iter=2 pbc="T T T"
P        4.19633267       3.67068895       3.88423943       0.00000000 NULL
P        3.53385981       3.47301511       1.37651672       0.00000000 NULL
2
Lattice="2.719146084272187 -0.003346357142250134 0.0006547275021531644 1.2728795987123727 3.499309603319164 0.03975497783326976 0.23620344344499403 0.717264683646296 4.602046327788278" Properties=species:S:1:pos:R:3:initial_magmoms:R:1:castep_labels:S:1 n_minim_iter=3 pbc="T T T"
P        3.99419201       3.63991468       4.04408433       0.00000000 NULL
P        3.35718804       3.42977426       1.47218554       0.00000000 NULL
2
Lattice="2.615998621053535 -0.0015304579713253785 0.008553145327395291 1.2266999439307802 3.475787415133929 0.05876456129960638 0.2399677862919733 0.7318568538126009 4.652830770359557" Properties=species:S:1:pos:R:3:initial_magmoms:R:1:castep_labels:S:1 n_minim_iter=4 pbc="T T T"
P        3.85433718       3.63281221       4.11032801       0.00000000 NULL
P        3.23697741       3.41549186       1.51381186       0.00000000 NULL
2
Lattice="2.1960646699767348 0.012382539211301372 0.05541034484458195 1.0468213439306522 3.3916864304597647 0.1511497458575215 0.2797085562211477 0.8035637455956615 4.884075567240327" Properties=species:S:1:pos:R:3:initial_magmoms:R:1:castep_labels:S:1 n_minim_iter=5 pbc="T T T"
P        3.30789898       3.63189209       4.42572692       0.00000000 NULL
P        2.76798520       3.37618003       1.71921637       0.00000000 NULL
2
Lattice="2.428064889296695 0.021911270474630387 0.07922588977926885 1.1676591868172856 3.3877863554448067 0.15407234427912653 0.3391490855487781 0.7924838647832474 4.73114815427959" Properties=species:S:1:pos:R:3:initial_magmoms:R:1:castep_labels:S:1 n_minim_iter=6 pbc="T T T"
P        3.68531733       3.63097094       4.31601269       0.00000000 NULL
P        3.08604352       3.37389776       1.69531392       0.00000000 NULL
2
Lattice="2.381352538345028 0.024426373232080835 0.08150679010041526 1.1488560021019363 3.392599524850143 0.16204746197949652 0.3392410283983946 0.8020085922674951 4.7394718175799815" Properties=species:S:1:pos:R:3:initial_magmoms:R:1:castep_labels:S:1 n_minim_iter=7 pbc="T T T"
P        3.61877299       3.64676026       4.33004192       0.00000000 NULL
P        3.03665920       3.38238772       1.70935577       0.00000000 NULL
