8
Lattice="3.41187 0.0 0.0 0.0 4.654840000000001 1.1845384501291202e-15 0.0 -2.2302366132771807 10.950282240969768" Properties=species:S:1:pos:R:3:initial_magmoms:R:1:castep_labels:S:1 n_minim_iter=1 pbc="T T T"
P        0.05703248       1.51389007       5.74317008       0.00000000 NULL
P        3.35483752       2.62900838       0.26802896       0.00000000 NULL
P        1.65476275       1.55074949       0.09302046       0.00000000 NULL
P        1.75710725       0.43563118       5.56816158       0.00000000 NULL
P        1.14729895       4.24019783       0.26329844       0.00000000 NULL
P        2.26457105       3.12507952       5.73843956       0.00000000 NULL
P        2.80359226       1.95235069      10.05378592       0.00000000 NULL
P        0.60827774       3.06746900       4.57864480       0.00000000 NULL
8
Lattice="3.42569641253473 0.0 0.0 0.0 4.676784933766068 -0.0016749962164501408 0.0 -2.2446912617900634 10.963802287953742" Properties=species:S:1:pos:R:3:initial_magmoms:R:1:castep_labels:S:1 n_minim_iter=2 pbc="T T T"
P        0.05734121       1.51877234       5.74956996       0.00000000 NULL
P        3.36835520       2.64111797       0.26766882       0.00000000 NULL
P        1.66145518       1.55793676       0.09245662       0.00000000 NULL
P        1.76424123       0.43559113       5.57435776       0.00000000 NULL
P        1.15197201       4.26020287       0.26244989       0.00000000 NULL
P        2.27372440       3.13785724       5.74435103       0.00000000 NULL
P        2.81502099       1.95810592      10.06422754       0.00000000 NULL
P        0.61067543       3.08045155       4.58232639       0.00000000 NULL
8
Lattice="3.6950952714566943 0.0 0.0 0.0 5.110321752140667 -0.034285965204644546 0.0 -2.529124024272768 11.22116553046008" Properties=species:S:1:pos:R:3:initial_magmoms:R:1:castep_labels:S:1 n_minim_iter=3 pbc="T T T"
P        0.06338164       1.61560644       5.87105504       0.00000000 NULL
P        3.63171364       2.88016845       0.26047227       0.00000000 NULL
P        1.79169437       1.69982914       0.08144636       0.00000000 NULL
P        1.90340090       0.43526712       5.69202913       0.00000000 NULL
P        1.24305372       4.65560431       0.24572909       0.00000000 NULL
P        2.45204155       3.39104230       5.85631185       0.00000000 NULL
P        3.03785753       2.07299578      10.26221928       0.00000000 NULL
P        0.65723774       3.33755779       4.65163652       0.00000000 NULL
8
Lattice="3.756043872094918 0.0 0.0 0.0 5.299064663957213 -0.02943736934431624 0.0 -2.6081488370024872 11.306033163386031" Properties=species:S:1:pos:R:3:initial_magmoms:R:1:castep_labels:S:1 n_minim_iter=4 pbc="T T T"
P        0.06439022       1.68016642       5.92020268       0.00000000 NULL
P        3.69165365       2.98424084       0.26718610       0.00000000 NULL
P        1.81867220       1.76179684       0.08263143       0.00000000 NULL
P        1.93737167       0.45772243       5.73564801       0.00000000 NULL
P        1.26415803       4.83195766       0.25590881       0.00000000 NULL
P        2.49188585       3.52788325       5.90892540       0.00000000 NULL
P        3.08994350       2.16229778      10.33996846       0.00000000 NULL
P        0.66610037       3.46637220       4.68695187       0.00000000 NULL
8
Lattice="3.7462775918040614 0.0 0.0 0.0 5.43524893528565 -0.0058676841146755995 0.0 -2.6179512023842726 11.35766246877973" Properties=species:S:1:pos:R:3:initial_magmoms:R:1:castep_labels:S:1 n_minim_iter=5 pbc="T T T"
P        0.06356665       1.75040460       5.96193359       0.00000000 NULL
P        3.68271094       3.05938020       0.28310235       0.00000000 NULL
P        1.81021547       1.80674223       0.08976573       0.00000000 NULL
P        1.93606212       0.49776663       5.76859697       0.00000000 NULL
P        1.26136787       4.96380173       0.28281186       0.00000000 NULL
P        2.48490972       3.65482613       5.96164309       0.00000000 NULL
P        3.08454415       2.26789474      10.40389307       0.00000000 NULL
P        0.66173344       3.57687034       4.72506183       0.00000000 NULL
8
Lattice="3.693367045952856 0.0 0.0 0.0 5.540140951305025 0.037138946536247254 0.0 -2.56703629890878 11.39980846334475" Properties=species:S:1:pos:R:3:initial_magmoms:R:1:castep_labels:S:1 n_minim_iter=6 pbc="T T T"
P        0.06157607       1.83420352       6.00940077       0.00000000 NULL
P        3.63179098       3.11772167       0.30949654       0.00000000 NULL
P        1.78017052       1.84166269       0.10308178       0.00000000 NULL
P        1.91319653       0.55814454       5.80298601       0.00000000 NULL
P        1.24356450       5.07074741       0.32858264       0.00000000 NULL
P        2.44980255       3.78722926       6.02848688       0.00000000 NULL
P        3.04442913       2.40007292      10.47543489       0.00000000 NULL
P        0.64893791       3.68359107       4.77553066       0.00000000 NULL
8
Lattice="3.5608407742319383 0.0 0.0 0.0 5.751410366332784 0.17209148492164716 0.0 -2.350790928542694 11.526444554959118" Properties=species:S:1:pos:R:3:initial_magmoms:R:1:castep_labels:S:1 n_minim_iter=7 pbc="T T T"
P        0.05685948       2.06161739       6.15433111       0.00000000 NULL
P        3.50398130       3.23701285       0.39110883       0.00000000 NULL
P        1.70636368       1.91275704       0.14529648       0.00000000 NULL
P        1.85447709       0.73736157       5.90851876       0.00000000 NULL
P        1.19761512       5.29617747       0.47188088       0.00000000 NULL
P        2.36322565       4.12078201       6.23510316       0.00000000 NULL
P        2.94410569       2.76460473      10.69556282       0.00000000 NULL
P        0.61673509       3.94000020       4.93234055       0.00000000 NULL
8
Lattice="3.4220542428707437 0.0 0.0 0.0 5.944741447409536 0.4453842037622363 0.0 -1.8005124334269356 11.841447972982591" Properties=species:S:1:pos:R:3:initial_magmoms:R:1:castep_labels:S:1 n_minim_iter=8 pbc="T T T"
P        0.05345689       2.45155728       6.47785342       0.00000000 NULL
P        3.36859735       3.35181350       0.55712943       0.00000000 NULL
P        1.62985288       1.98198086       0.23091026       0.00000000 NULL
P        1.79220136       1.08172464       6.15163424       0.00000000 NULL
P        1.14723933       5.53259119       0.76605524       0.00000000 NULL
P        2.27481492       4.63233497       6.68677922       0.00000000 NULL
P        2.84199742       3.40189258      11.19358884       0.00000000 NULL
P        0.58005682       4.30214880       5.27286485       0.00000000 NULL
8
Lattice="3.2434327875599744 0.0 0.0 0.0 6.055078630168659 0.7059627555082043 0.0 -1.240379182280551 12.041096423863213" Properties=species:S:1:pos:R:3:initial_magmoms:R:1:castep_labels:S:1 n_minim_iter=9 pbc="T T T"
P        0.05913175       2.78654822       6.74078739       0.00000000 NULL
P        3.18430104       3.40673781       0.72023917       0.00000000 NULL
P        1.53942735       2.02831856       0.29995011       0.00000000 NULL
P        1.70400544       1.40812897       6.32049832       0.00000000 NULL
P        1.08988614       5.69820530       1.04284539       0.00000000 NULL
P        2.15354665       5.07801571       7.06339360       0.00000000 NULL
P        2.70475088       3.97864239      11.58172484       0.00000000 NULL
P        0.53868191       4.59883198       5.56117663       0.00000000 NULL
8
Lattice="3.409957241036463 0.0 0.0 0.0 6.1990959719887835 0.6791932628951567 0.0 -1.3723549855808854 12.034223131897386" Properties=species:S:1:pos:R:3:initial_magmoms:R:1:castep_labels:S:1 n_minim_iter=10 pbc="T T T"
P        0.06642816       2.79345119       6.73166341       0.00000000 NULL
P        3.34352908       3.47962868       0.71455185       0.00000000 NULL
P        1.61815546       2.07094169       0.27976115       0.00000000 NULL
P        1.79180178       1.38476420       6.29687272       0.00000000 NULL
P        1.14785902       5.83420058       1.01721776       0.00000000 NULL
P        2.26209822       5.14802309       7.03432932       0.00000000 NULL
P        2.84609721       3.98663586      11.55436917       0.00000000 NULL
P        0.56386003       4.67281336       5.53725760       0.00000000 NULL
8
Lattice="3.3248845773729627 0.0 0.0 0.0 6.062645006015189 0.6534197855014194 0.0 -1.3676091536213175 11.91962512398983" Properties=species:S:1:pos:R:3:initial_magmoms:R:1:castep_labels:S:1 n_minim_iter=11 pbc="T T T"
P        0.06605033       2.71434538       6.65655969       0.00000000 NULL
P        3.25883425       3.39814996       0.69674713       0.00000000 NULL
P        1.57742576       2.02848289       0.26929185       0.00000000 NULL
P        1.74745881       1.34467831       6.22910441       0.00000000 NULL
P        1.11994637       5.70519133       0.98654398       0.00000000 NULL
P        2.20493821       5.02138675       6.94635654       0.00000000 NULL
P        2.77598149       3.87640713      11.43209469       0.00000000 NULL
P        0.54890308       4.56021171       5.47228213       0.00000000 NULL
