12
Lattice="5.83462 3.112165241638282e-16 -8.627785309122732e-16 -2.243174296026694 6.015755980302488 1.1090146419771853e-16 -2.246152471387811 -1.1945146250384273 7.565739721002017" Properties=species:S:1:pos:R:3:initial_magmoms:R:1:castep_labels:S:1 n_minim_iter=1 pbc="T T T"
P       -1.49089709      -0.52600793       7.27371427       0.00000000 NULL
P        3.73183147       1.76995578       3.62519228       0.00000000 NULL
P       -2.65131536       4.84597204       2.54495142       0.00000000 NULL
P        3.74925319       2.94965182       1.99146309       0.00000000 NULL
P       -0.15311639       3.19750708       5.60014163       0.00000000 NULL
P        1.80414975       4.46678982       0.02101233       0.00000000 NULL
P        1.43210321       0.33607274       3.02606892       0.00000000 NULL
P        0.06751776       4.12297447       3.82251055       0.00000000 NULL
P        1.48470389       0.81457220       6.79527505       0.00000000 NULL
P       -3.04231811       3.61498632       7.50307497       0.00000000 NULL
P        0.89837710       1.17611071       4.85764069       0.00000000 NULL
P        3.57904203      -0.52467684       4.60414150       0.00000000 NULL
12
Lattice="5.833537838672598 0.00018717323471479098 -0.00023570902804940846 -2.2425652649364336 6.017788969135703 -0.0020346623692633755 -2.246079835120567 -1.1976775195678908 7.573912326697071" Properties=species:S:1:pos:R:3:initial_magmoms:R:1:castep_labels:S:1 n_minim_iter=2 pbc="T T T"
P       -1.49094955      -0.52867601       7.28123264       0.00000000 NULL
P        3.73095741       1.76932244       3.62826946       0.00000000 NULL
P       -2.65086365       4.84685643       2.54601299       0.00000000 NULL
P        3.74864131       2.95006316       1.99209126       0.00000000 NULL
P       -0.15323318       3.19642942       5.60463645       0.00000000 NULL
P        1.80374383       4.46846265       0.01957488       0.00000000 NULL
P        1.43179673       0.33505526       3.02885289       0.00000000 NULL
P        0.06743943       4.12313336       3.82462873       0.00000000 NULL
P        1.48423718       0.81242636       6.80187723       0.00000000 NULL
P       -3.04177058       3.61336548       7.50948980       0.00000000 NULL
P        0.89789451       1.17499021       4.86222985       0.00000000 NULL
P        3.57844754      -0.52628838       4.60894672       0.00000000 NULL
12
Lattice="5.79816520319989 0.006446955853966376 -0.00760266803704713 -2.222511806201798 6.078871991958172 -0.0662862946618934 -2.2432967170595943 -1.29706250121204 7.827966538140727" Properties=species:S:1:pos:R:3:initial_magmoms:R:1:castep_labels:S:1 n_minim_iter=3 pbc="T T T"
P       -1.49220346      -0.61271296       7.51468881       0.00000000 NULL
P        3.70276506       1.74866825       3.72365584       0.00000000 NULL
P       -2.63567717       4.87220318       2.57820156       0.00000000 NULL
P        3.72872360       2.96184426       2.01090480       0.00000000 NULL
P       -0.15661615       3.16087642       5.74365095       0.00000000 NULL
P        1.79091407       4.51910208      -0.02573905       0.00000000 NULL
P        1.42185225       0.30289453       3.11520509       0.00000000 NULL
P        0.06527193       4.12620442       3.88936121       0.00000000 NULL
P        1.46927411       0.74437156       7.00680799       0.00000000 NULL
P       -3.02362466       3.56027457       7.70810860       0.00000000 NULL
P        0.88271056       1.13905181       5.00469327       0.00000000 NULL
P        3.55882869      -0.57670502       4.75833170       0.00000000 NULL
12
Lattice="5.717032052641935 0.02367197189936813 -0.01215598622364057 -2.173559639450026 6.033856204033261 -0.09732900091370666 -2.221493639431952 -1.3373126287963886 7.874900365355018" Properties=species:S:1:pos:R:3:initial_magmoms:R:1:castep_labels:S:1 n_minim_iter=4 pbc="T T T"
P       -1.47859385      -0.65040777       7.55306502       0.00000000 NULL
P        3.65016429       1.72726094       3.73237351       0.00000000 NULL
P       -2.58897658       4.82439702       2.57001258       0.00000000 NULL
P        3.68562352       2.94087977       1.99897600       0.00000000 NULL
P       -0.14999908       3.10440911       5.75279116       0.00000000 NULL
P        1.77279599       4.49727846      -0.04800645       0.00000000 NULL
P        1.40263052       0.28531896       3.12623593       0.00000000 NULL
P        0.07198138       4.08049993       3.87947072       0.00000000 NULL
P        1.44668220       0.70459589       7.03592761       0.00000000 NULL
P       -2.97157587       3.48410582       7.72838966       0.00000000 NULL
P        0.86643371       1.11175144       5.02764496       0.00000000 NULL
P        3.51136959      -0.58536960       4.78465215       0.00000000 NULL
12
Lattice="5.518154151994192 0.06964527580084852 -0.010886380795436107 -2.0496986214813577 5.960556320453064 -0.1598946808807581 -2.1526974181886036 -1.4220379210587448 7.968583783325647" Properties=species:S:1:pos:R:3:initial_magmoms:R:1:castep_labels:S:1 n_minim_iter=5 pbc="T T T"
P       -1.42994671      -0.72293011       7.62917665       0.00000000 NULL
P        3.52986046       1.70025551       3.76056544       0.00000000 NULL
P       -2.46718881       4.74581649       2.55558071       0.00000000 NULL
P        3.58652210       2.91426827       1.98371627       0.00000000 NULL
P       -0.12038942       3.00429691       5.77373291       0.00000000 NULL
P        1.73160377       4.47290429      -0.08587099       0.00000000 NULL
P        1.36230298       0.25516755       3.15145199       0.00000000 NULL
P        0.09824421       4.00461242       3.86067778       0.00000000 NULL
P        1.40622463       0.63411051       7.10159249       0.00000000 NULL
P       -2.82570873       3.33958366       7.77018243       0.00000000 NULL
P        0.83844397       1.06728122       5.08257510       0.00000000 NULL
P        3.40587094      -0.59231409       4.84829573       0.00000000 NULL
12
Lattice="5.290166274058668 0.13058014492605305 0.023366375793047185 -1.8992199526152589 5.9642936097676875 -0.1969061202355819 -2.032988613810296 -1.480875660777038 8.006402281099843" Properties=species:S:1:pos:R:3:initial_magmoms:R:1:castep_labels:S:1 n_minim_iter=6 pbc="T T T"
P       -1.33326682      -0.75366337       7.65673330       0.00000000 NULL
P        3.41499847       1.73172871       3.80364285       0.00000000 NULL
P       -2.30888871       4.74821283       2.54840926       0.00000000 NULL
P        3.48835125       2.94335292       1.99995721       0.00000000 NULL
P       -0.05304577       2.98522428       5.78387020       0.00000000 NULL
P        1.69346865       4.51392274      -0.08696014       0.00000000 NULL
P        1.33392518       0.25361488       3.17015455       0.00000000 NULL
P        0.15420871       4.00553624       3.84822870       0.00000000 NULL
P        1.39904626       0.62079439       7.15009282       0.00000000 NULL
P       -2.61354308       3.27941776       7.78368799       0.00000000 NULL
P        0.83838229       1.07153637       5.13089967       0.00000000 NULL
P        3.31192195      -0.56462033       4.91015778       0.00000000 NULL
12
Lattice="4.713075273684616 0.2685903911411274 0.15902568998839212 -1.5350571343822375 5.994961136172741 -0.28576811636781174 -1.6631715252718118 -1.596794686055616 8.016702529650258" Properties=species:S:1:pos:R:3:initial_magmoms:R:1:castep_labels:S:1 n_minim_iter=7 pbc="T T T"
P       -1.01993543      -0.78722712       7.64548239       0.00000000 NULL
P        3.15137186       1.82280595       3.92232968       0.00000000 NULL
P       -1.89716411       4.78088596       2.51219118       0.00000000 NULL
P        3.24344566       3.01833763       2.07466965       0.00000000 NULL
P        0.14976816       2.97812557       5.76789516       0.00000000 NULL
P        1.59821237       4.62027955      -0.06310880       0.00000000 NULL
P        1.28689920       0.26414623       3.20076134       0.00000000 NULL
P        0.31988870       4.03287614       3.80486753       0.00000000 NULL
P        1.43370851       0.60017606       7.24296242       0.00000000 NULL
P       -2.04082865       3.17331768       7.74812468       0.00000000 NULL
P        0.88527990       1.09529464       5.22248088       0.00000000 NULL
P        3.10627300      -0.49138161       5.05605912       0.00000000 NULL
12
Lattice="5.113806506845679 0.21270682795370982 0.228132234085661 -1.7467404798764818 6.233504284185512 -0.3082065115802433 -1.7163896595363626 -1.6131867768405899 8.19014870853622" Properties=species:S:1:pos:R:3:initial_magmoms:R:1:castep_labels:S:1 n_minim_iter=8 pbc="T T T"
P       -1.02411414      -0.76624899       7.81095014       0.00000000 NULL
P        3.42623075       1.85552449       4.06790502       0.00000000 NULL
P       -2.10761070       4.99141487       2.56235567       0.00000000 NULL
P        3.50178607       3.07853919       2.17380655       0.00000000 NULL
P        0.16427465       3.11036999       5.90695866       0.00000000 NULL
P        1.69235411       4.76145320      -0.03236882       0.00000000 NULL
P        1.42734282       0.26649533       3.28564766       0.00000000 NULL
P        0.32418313       4.18383657       3.89937043       0.00000000 NULL
P        1.60666476       0.60256809       7.45692674       0.00000000 NULL
P       -2.21256223       3.33139367       7.90874513       0.00000000 NULL
P        0.99215901       1.12882740       5.36761430       0.00000000 NULL
P        3.43303099      -0.54426448       5.22797799       0.00000000 NULL
12
Lattice="4.955237239800282 0.21592412885954207 0.209287214272815 -1.6824598581494803 5.941878181457463 -0.29262834652797376 -1.6804402535538112 -1.5462843469068104 7.907426826354257" Properties=species:S:1:pos:R:3:initial_magmoms:R:1:castep_labels:S:1 n_minim_iter=9 pbc="T T T"
P       -1.00599205      -0.73619788       7.53833033       0.00000000 NULL
P        3.31232416       1.77683138       3.91813337       0.00000000 NULL
P       -2.03985145       4.75546546       2.48228873       0.00000000 NULL
P        3.39458224       2.94424421       2.09402165       0.00000000 NULL
P        0.15243548       2.96497732       5.69963366       0.00000000 NULL
P        1.64570323       4.54655816      -0.03642776       0.00000000 NULL
P        1.37897312       0.25522301       3.16897068       0.00000000 NULL
P        0.31492895       3.99424316       3.76313484       0.00000000 NULL
P        1.54337027       0.57292224       7.19174587       0.00000000 NULL
P       -2.15325830       3.17175860       7.63656951       0.00000000 NULL
P        0.95463130       1.07805490       5.18172326       0.00000000 NULL
P        3.31777185      -0.51424733       5.03482419       0.00000000 NULL
12
Lattice="4.959672233257271 0.20011330795389345 0.22411538629869468 -1.7004666013036438 5.947507995679701 -0.3181278896109301 -1.6596830019456847 -1.5650084736604184 7.941045045455374" Properties=species:S:1:pos:R:3:initial_magmoms:R:1:castep_labels:S:1 n_minim_iter=10 pbc="T T T"
P       -0.98555681      -0.75230014       7.56775353       0.00000000 NULL
P        3.31766186       1.75419389       3.94049554       0.00000000 NULL
P       -2.05035427       4.75566811       2.47358730       0.00000000 NULL
P        3.39547076       2.92596625       2.10306992       0.00000000 NULL
P        0.15555046       2.94835977       5.71312563       0.00000000 NULL
P        1.63533305       4.54093401      -0.04587096       0.00000000 NULL
P        1.38811880       0.24131186       3.18330765       0.00000000 NULL
P        0.31324916       3.98326736       3.76445939       0.00000000 NULL
P        1.55896829       0.54284102       7.22762179       0.00000000 NULL
P       -2.14767493       3.15396893       7.65173992       0.00000000 NULL
P        0.96503869       1.05887492       5.20440051       0.00000000 NULL
P        3.33715194      -0.54074588       5.06850729       0.00000000 NULL
12
Lattice="4.95629687560937 0.18639588410172983 0.23882359009620824 -1.7133121951996166 5.933515747598901 -0.3367245157890294 -1.6365031422414777 -1.572178588368184 7.943217229886361" Properties=species:S:1:pos:R:3:initial_magmoms:R:1:castep_labels:S:1 n_minim_iter=11 pbc="T T T"
P       -0.96338175      -0.75976211       7.56817678       0.00000000 NULL
P        3.31862767       1.73159906       3.94984222       0.00000000 NULL
P       -2.05551105       4.74225362       2.45997467       0.00000000 NULL
P        3.39226076       2.90226053       2.10788638       0.00000000 NULL
P        0.16006968       2.92801260       5.70830014       0.00000000 NULL
P        1.62412396       4.52201169      -0.05080811       0.00000000 NULL
P        1.39529391       0.23034431       3.18644324       0.00000000 NULL
P        0.31290013       3.96354024       3.75592310       0.00000000 NULL
P        1.57252400       0.51904468       7.23651434       0.00000000 NULL
P       -2.13683476       3.13287681       7.64109830       0.00000000 NULL
P        0.97482938       1.04177608       5.20910498       0.00000000 NULL
P        3.35115144      -0.55893703       5.08295255       0.00000000 NULL
12
Lattice="4.956089287816594 0.18256930767074023 0.24330457207978262 -1.717177758757808 5.930461497307196 -0.34113848601714847 -1.6298293367962828 -1.5731915033350352 7.943427290080991" Properties=species:S:1:pos:R:3:initial_magmoms:R:1:castep_labels:S:1 n_minim_iter=12 pbc="T T T"
P       -0.95690848      -0.76086257       7.56812469       0.00000000 NULL
P        3.31962330       1.72610954       3.95289106       0.00000000 NULL
P       -2.05712669       4.73958383       2.45665908       0.00000000 NULL
P        3.39196287       2.89635300       2.10990470       0.00000000 NULL
P        0.16168757       2.92362182       5.70741254       0.00000000 NULL
P        1.62121349       4.51738131      -0.05140045       0.00000000 NULL
P        1.39765287       0.22779040       3.18746135       0.00000000 NULL
P        0.31303278       3.95913911       3.75416259       0.00000000 NULL
P        1.57691073       0.51364333       7.23906412       0.00000000 NULL
P       -2.13368103       3.12864732       7.63841468       0.00000000 NULL
P        0.97801018       1.03791672       5.21062418       0.00000000 NULL
P        3.35580804      -0.56332956       5.08714123       0.00000000 NULL
12
Lattice="4.954737372537383 0.1376920423162436 0.2970385634155003 -1.7629284838832104 5.895616290367547 -0.39142562846770035 -1.550444466785931 -1.5828327051678508 7.944519249317801" Properties=species:S:1:pos:R:3:initial_magmoms:R:1:castep_labels:S:1 n_minim_iter=13 pbc="T T T"
P       -0.87987973      -0.77180869       7.56674652       0.00000000 NULL
P        3.33281686       1.66323110       3.98957467       0.00000000 NULL
P       -2.07604608       4.70983067       2.41835244       0.00000000 NULL
P        3.38958936       2.82820938       2.13519537       0.00000000 NULL
P        0.18174849       2.87440487       5.69760120       0.00000000 NULL
P        1.58738745       4.46385029      -0.05658401       0.00000000 NULL
P        1.42608855       0.19884138       3.19970848       0.00000000 NULL
P        0.31523287       3.90931020       3.73459905       0.00000000 NULL
P        1.63004262       0.45291518       7.26881429       0.00000000 NULL
P       -2.09566142       3.08212916       7.60691495       0.00000000 NULL
P        1.01659895       0.99439356       5.22873735       0.00000000 NULL
P        3.41204225      -0.61342692       5.13674167       0.00000000 NULL
12
Lattice="4.96168312791412 0.0906184032878008 0.36679451563997983 -1.814133886364894 5.865311199451982 -0.42721337201035664 -1.4530286448148053 -1.566380087908323 7.929730836647672" Properties=species:S:1:pos:R:3:initial_magmoms:R:1:castep_labels:S:1 n_minim_iter=14 pbc="T T T"
P       -0.78376880      -0.75875064       7.55596952       0.00000000 NULL
P        3.36056808       1.61247738       4.03933464       0.00000000 NULL
P       -2.09429572       4.69297557       2.38593657       0.00000000 NULL
P        3.39703451       2.76701320       2.17948815       0.00000000 NULL
P        0.21542405       2.84602545       5.69472753       0.00000000 NULL
P        1.55408816       4.41288029      -0.04198271       0.00000000 NULL
P        1.46452735       0.17958227       3.21520963       0.00000000 NULL
P        0.32570694       3.87447085       3.72615780       0.00000000 NULL
P        1.70238183       0.41711226       7.29808272       0.00000000 NULL
P       -2.04229981       3.06481000       7.57366313       0.00000000 NULL
P        1.07059955       0.96798619       5.25059720       0.00000000 NULL
P        3.48714426      -0.64880856       5.19281324       0.00000000 NULL
12
Lattice="4.965483677608005 0.03910845080865865 0.4460204310557921 -1.8687041240248388 5.831417260010271 -0.46624027716861915 -1.3412140908801855 -1.5466631965151278 7.923412277576704" Properties=species:S:1:pos:R:3:initial_magmoms:R:1:castep_labels:S:1 n_minim_iter=15 pbc="T T T"
P       -0.67363418      -0.74502932       7.55624783       0.00000000 NULL
P        3.39100101       1.55722742       4.10126816       0.00000000 NULL
P       -2.11089666       4.67387484       2.35197088       0.00000000 NULL
P        3.40347257       2.70117533       2.23301451       0.00000000 NULL
P        0.25593376       2.81452948       5.70146894       0.00000000 NULL
P        1.51593744       4.35703416      -0.02433722       0.00000000 NULL
P        1.50662664       0.15866029       3.23838114       0.00000000 NULL
P        0.33895206       3.83686224       3.72367217       0.00000000 NULL
P        1.78299059       0.38141078       7.33882412       0.00000000 NULL
P       -1.97726302       3.04721110       7.54785072       0.00000000 NULL
P        1.13201091       0.94045045       5.28215564       0.00000000 NULL
P        3.56795881      -0.68654033       5.26337955       0.00000000 NULL
12
Lattice="4.96922103647066 0.016221334304047683 0.48303973163944797 -1.8937386344677174 5.821461167765488 -0.4822765652840921 -1.2899643590358874 -1.5363968684465 7.922431017786799" Properties=species:S:1:pos:R:3:initial_magmoms:R:1:castep_labels:S:1 n_minim_iter=16 pbc="T T T"
P       -0.62230858      -0.73739450       7.55944620       0.00000000 NULL
P        3.40705814       1.53530960       4.13205854       0.00000000 NULL
P       -2.11865734       4.67039969       2.33787559       0.00000000 NULL
P        3.40827905       2.67520581       2.25952598       0.00000000 NULL
P        0.27570105       2.80486235       5.70808613       0.00000000 NULL
P        1.49943589       4.33624187      -0.01454398       0.00000000 NULL
P        1.52688000       0.15041121       3.25061906       0.00000000 NULL
P        0.34596200       3.82512600       3.72529552       0.00000000 NULL
P        1.82066483       0.36912994       7.35926945       0.00000000 NULL
P       -1.94690385       3.04474226       7.53951487       0.00000000 NULL
P        1.16146727       0.93090271       5.29883225       0.00000000 NULL
P        3.60639674      -0.70229250       5.29792042       0.00000000 NULL
12
Lattice="4.970113424560205 0.006477229826440509 0.4987469289546954 -1.9041283319644557 5.81569285005279 -0.48854618912316927 -1.2679455125253676 -1.5310467589856367 7.920870121226983" Properties=species:S:1:pos:R:3:initial_magmoms:R:1:castep_labels:S:1 n_minim_iter=17 pbc="T T T"
P       -0.60022258      -0.73351553       7.55995236       0.00000000 NULL
P        3.41345119       1.52585583       4.14479266       0.00000000 NULL
P       -2.12167893       4.66785572       2.33182907       0.00000000 NULL
P        3.40984313       2.66365481       2.27074622       0.00000000 NULL
P        0.28413596       2.80038002       5.71050577       0.00000000 NULL
P        1.49215908       4.32630510      -0.01003174       0.00000000 NULL
P        1.53532307       0.14703721       3.25550421       0.00000000 NULL
P        0.34890590       3.81943576       3.72586339       0.00000000 NULL
P        1.83631337       0.36444274       7.36687266       0.00000000 NULL
P       -1.93363915       3.04344941       7.53526685       0.00000000 NULL
P        1.17390006       0.92700179       5.30533061       0.00000000 NULL
P        3.62218083      -0.70846244       5.31191191       0.00000000 NULL
12
Lattice="4.9719879704683665 -0.008913586926877997 0.5235510006998328 -1.9207176438859541 5.807304948944861 -0.4983106315603104 -1.233352824291419 -1.5225683908866587 7.919325228616057" Properties=species:S:1:pos:R:3:initial_magmoms:R:1:castep_labels:S:1 n_minim_iter=18 pbc="T T T"
P       -0.56540454      -0.72735958       7.56176658       0.00000000 NULL
P        3.42388104       1.51123433       4.16541036       0.00000000 NULL
P       -2.12668407       4.66446866       2.32261226       0.00000000 NULL
P        3.41260513       2.64583349       2.28875410       0.00000000 NULL
P        0.29746933       2.79378674       5.71514029       0.00000000 NULL
P        1.48078746       4.31117945      -0.00280469       0.00000000 NULL
P        1.54878617       0.14178363       3.26364635       0.00000000 NULL
P        0.35353727       3.81102746       3.72733133       0.00000000 NULL
P        1.86106439       0.35737529       7.37962820       0.00000000 NULL
P       -1.91289691       3.04198752       7.52958263       0.00000000 NULL
P        1.19362341       0.92111036       5.31622097       0.00000000 NULL
P        3.64733741      -0.71817404       5.33460849       0.00000000 NULL
12
Lattice="4.97365595205368 -0.021763925004110087 0.5441593848928151 -1.9346081922944958 5.800908912713426 -0.5062035310795387 -1.204641263524071 -1.5153324158395223 7.918496046533948" Properties=species:S:1:pos:R:3:initial_magmoms:R:1:castep_labels:S:1 n_minim_iter=19 pbc="T T T"
P       -0.53642385      -0.72210545       7.56388271       0.00000000 NULL
P        3.43265439       1.49936693       4.18286267       0.00000000 NULL
P       -2.13095902       4.66219539       2.31517728       0.00000000 NULL
P        3.41492606       2.63136299       2.30392559       0.00000000 NULL
P        0.30855559       2.78877363       5.71954099       0.00000000 NULL
P        1.47129945       4.29904477       0.00335087       0.00000000 NULL
P        1.56001773       0.13750231       3.27068657       0.00000000 NULL
P        0.35732943       3.80456364       3.72896736       0.00000000 NULL
P        1.88154675       0.35191556       7.39054733       0.00000000 NULL
P       -1.89569884       3.04138834       7.52548619       0.00000000 NULL
P        1.21003481       0.91651645       5.32560924       0.00000000 NULL
P        3.66819907      -0.72619105       5.35378219       0.00000000 NULL
12
Lattice="4.982757479381905 -0.09145620773690111 0.6569417344314086 -2.0099632417729487 5.768809512753087 -0.5495011601228655 -1.047632420684777 -1.476730161573688 7.917173961173294" Properties=species:S:1:pos:R:3:initial_magmoms:R:1:castep_labels:S:1 n_minim_iter=20 pbc="T T T"
P       -0.37742837      -0.69451205       7.57954299       0.00000000 NULL
P        3.48117805       1.43590178       4.27988335       0.00000000 NULL
P       -2.15399216       4.65193072       2.27473231       0.00000000 NULL
P        3.42788721       2.55421073       2.38768496       0.00000000 NULL
P        0.36972579       2.76283554       5.74607720       0.00000000 NULL
P        1.41970849       4.23537717       0.03685183       0.00000000 NULL
P        1.62160438       0.11411156       3.31084316       0.00000000 NULL
P        0.37823898       3.77135729       3.73938497       0.00000000 NULL
P        1.99313812       0.32311892       7.45216689       0.00000000 NULL
P       -1.80094148       3.03946999       7.50613124       0.00000000 NULL
P        1.30025880       0.89203570       5.37914812       0.00000000 NULL
P        3.78198870      -0.77028054       5.46107563       0.00000000 NULL
12
Lattice="5.012516032517395 -0.1965534257770841 0.8547203858602063 -2.1297641610134277 5.760109303994688 -0.6299100501198769 -0.7811129703331342 -1.4320174927490303 7.964244270471811" Properties=species:S:1:pos:R:3:initial_magmoms:R:1:castep_labels:S:1 n_minim_iter=21 pbc="T T T"
P       -0.09421166      -0.66227991       7.66263570       0.00000000 NULL
P        3.58108394       1.34956160       4.47479195       0.00000000 NULL
P       -2.19025658       4.66775213       2.20978164       0.00000000 NULL
P        3.46757872       2.45497204       2.54346939       0.00000000 NULL
P        0.48627625       2.74079235       5.82893837       0.00000000 NULL
P        1.34431685       4.17162021       0.09077808       0.00000000 NULL
P        1.73769829       0.07564413       3.40232327       0.00000000 NULL
P        0.42581651       3.75118461       3.77563572       0.00000000 NULL
P        2.18521101       0.28242384       7.59392666       0.00000000 NULL
P       -1.62960175       3.05116441       7.51787459       0.00000000 NULL
P        1.46742160       0.85893095       5.50607116       0.00000000 NULL
P        3.98661794      -0.84746235       5.68262726       0.00000000 NULL
12
Lattice="4.95159412941054 -0.18593567752257728 0.8873122528004072 -2.095394788256722 5.612891532655381 -0.6091785644061783 -0.7175718297033715 -1.365851609522288 7.877678155315449" Properties=species:S:1:pos:R:3:initial_magmoms:R:1:castep_labels:S:1 n_minim_iter=22 pbc="T T T"
P       -0.01582419      -0.61515904       7.60261830       0.00000000 NULL
P        3.56203918       1.33439605       4.47804018       0.00000000 NULL
P       -2.14774213       4.55983407       2.19010252       0.00000000 NULL
P        3.44525051       2.40307311       2.56316787       0.00000000 NULL
P        0.52233232       2.69612635       5.80141733       0.00000000 NULL
P        1.32869646       4.07278798       0.11851402       0.00000000 NULL
P        1.74875481       0.08247486       3.38688578       0.00000000 NULL
P        0.45288227       3.68309763       3.75725307       0.00000000 NULL
P        2.18786064       0.30648773       7.53027199       0.00000000 NULL
P       -1.54868661       2.99847968       7.45287155       0.00000000 NULL
P        1.49652192       0.85956316       5.48072235       0.00000000 NULL
P        3.97397600      -0.80850601       5.66429074       0.00000000 NULL
12
Lattice="5.022072334543787 -0.20034218906878706 0.9090301686907253 -2.1373445563949027 5.713213400395319 -0.6306223878279794 -0.7135928057039557 -1.3955940235610873 7.989579957065539" Properties=species:S:1:pos:R:3:initial_magmoms:R:1:castep_labels:S:1 n_minim_iter=23 pbc="T T T"
P       -0.00103499      -0.63196462       7.71231032       0.00000000 NULL
P        3.61471359       1.34532816       4.54713403       0.00000000 NULL
P       -2.18659151       4.64053739       2.20758332       0.00000000 NULL
P        3.49188060       2.43293917       2.60045125       0.00000000 NULL
P        0.53063922       2.73621027       5.88004498       0.00000000 NULL
P        1.33849748       4.13942134       0.11649138       0.00000000 NULL
P        1.77911457       0.07615611       3.43679478       0.00000000 NULL
P        0.45627507       3.74220808       3.80281775       0.00000000 NULL
P        2.22532418       0.29936396       7.63889816       0.00000000 NULL
P       -1.56579684       3.04311219       7.55060499       0.00000000 NULL
P        1.52446250       0.86480705       5.55978923       0.00000000 NULL
P        4.03974635      -0.83765911       5.75463354       0.00000000 NULL
12
Lattice="5.017255210589293 -0.20172297691136126 0.9126754872559298 -2.1369162224307385 5.707523063933867 -0.6319188514738548 -0.7067287944038445 -1.3936950845111258 7.987289167463443" Properties=species:S:1:pos:R:3:initial_magmoms:R:1:castep_labels:S:1 n_minim_iter=24 pbc="T T T"
P        0.00830836      -0.63076694       7.71280916       0.00000000 NULL
P        3.61293611       1.34279078       4.55002211       0.00000000 NULL
P       -2.18528824       4.63644329       2.20450070       0.00000000 NULL
P        3.48945431       2.42870884       2.60260543       0.00000000 NULL
P        0.53301192       2.73347343       5.88023664       0.00000000 NULL
P        1.33508253       4.13497864       0.11665650       0.00000000 NULL
P        1.78101570       0.07460157       3.43748214       0.00000000 NULL
P        0.45759887       3.73961939       3.80119078       0.00000000 NULL
P        2.22491843       0.29854091       7.63700663       0.00000000 NULL
P       -1.55899825       3.03926851       7.54804344       0.00000000 NULL
P        1.52776213       0.86339154       5.56052422       0.00000000 NULL
P        4.03972825      -0.83905495       5.75689493       0.00000000 NULL
12
Lattice="5.017805222068351 -0.2036343761707629 0.9188501104635067 -2.139098418210044 5.706641242290788 -0.6349327855442864 -0.6985425925962784 -1.3934431909734377 7.992694846405201" Properties=species:S:1:pos:R:3:initial_magmoms:R:1:castep_labels:S:1 n_minim_iter=25 pbc="T T T"
P        0.02082819      -0.63044601       7.72166383       0.00000000 NULL
P        3.61571608       1.34086687       4.55883407       0.00000000 NULL
P       -2.18646283       4.63622809       2.20207266       0.00000000 NULL
P        3.49118487       2.42587496       2.60820682       0.00000000 NULL
P        0.53702533       2.73270285       5.88644384       0.00000000 NULL
P        1.33258479       4.13400181       0.11683029       0.00000000 NULL
P        1.78609509       0.07243377       3.44207696       0.00000000 NULL
P        0.46014924       3.74034088       3.80264099       0.00000000 NULL
P        2.22755881       0.29731547       7.64272843       0.00000000 NULL
P       -1.55189896       3.03704481       7.55221670       0.00000000 NULL
P        1.53434990       0.86219974       5.56730702       0.00000000 NULL
P        4.04536508      -0.84220041       5.76639557       0.00000000 NULL
12
Lattice="5.039172230992803 -0.2219550194866775 1.0086216783059712 -2.166202573200941 5.68465454466672 -0.6770519443180633 -0.5866108758569691 -1.3901911883989007 8.073238558509336" Properties=species:S:1:pos:R:3:initial_magmoms:R:1:castep_labels:S:1 n_minim_iter=26 pbc="T T T"
P        0.20271490      -0.62584269       7.85626058       0.00000000 NULL
P        3.66702369       1.31864841       4.68910601       0.00000000 NULL
P       -2.20315931       4.62470784       2.16755238       0.00000000 NULL
P        3.52968093       2.38856977       2.69166879       0.00000000 NULL
P        0.59991376       2.71998488       5.98003866       0.00000000 NULL
P        1.30623979       4.11905117       0.11929815       0.00000000 NULL
P        1.86521583       0.04281527       3.51048610       0.00000000 NULL
P        0.50390592       3.74941261       3.82467023       0.00000000 NULL
P        2.26735970       0.28319649       7.72612512       0.00000000 NULL
P       -1.44897924       2.99789029       7.61670874       0.00000000 NULL
P        1.63469129       0.84739814       5.66741547       0.00000000 NULL
P        4.13486222      -0.88097933       5.90538603       0.00000000 NULL
