16
Lattice="6.065549999999999 -2.2102237358740058e-15 -2.248151644178442e-15 1.1009981601085896 6.659845576966299 -1.5634824822008622e-16 1.4925460908209145 1.5760532543353434 9.130232422582361" Properties=species:S:1:pos:R:3:initial_magmoms:R:1:castep_labels:S:1 n_minim_iter=1 pbc="T T T"
P        5.77195208       4.73843179       7.87043930       0.00000000 NULL
P        5.37951269       1.43360477       5.74839616       0.00000000 NULL
P        5.30929510       5.30589818       0.86971855       0.00000000 NULL
P        1.12766461       3.36964445       1.68784216       0.00000000 NULL
P        3.38910112       2.57193808       2.67392187       0.00000000 NULL
P        7.63806182       5.68914559       8.07826165       0.00000000 NULL
P        4.47756853       5.88139976       3.22728699       0.00000000 NULL
P        1.62124704       1.90820752       0.05431027       0.00000000 NULL
P        6.05001474       6.26419134       6.57744774       0.00000000 NULL
P        4.56043937       2.19792318       7.76588079       0.00000000 NULL
P        2.45985148       1.91562504       5.44393669       0.00000000 NULL
P        2.53089239       5.29052393       5.90517138       0.00000000 NULL
P        5.72357270       3.29240920       5.04696149       0.00000000 NULL
P        3.43903546       5.01758007       1.70357629       0.00000000 NULL
P        1.27718514       5.36946193       0.13270793       0.00000000 NULL
P        2.70489688       6.66761874       0.72832594       0.00000000 NULL
16
Lattice="6.071752285777469 0.00627614678949748 0.004013165490104905 1.109015054481878 6.67561889657049 -0.002828563973365906 1.5017439166798299 1.576184329477328 9.133267983194614" Properties=species:S:1:pos:R:3:initial_magmoms:R:1:castep_labels:S:1 n_minim_iter=2 pbc="T T T"
P        5.78779089       4.75034287       7.87441257       0.00000000 NULL
P        5.39024086       1.43938103       5.75302518       0.00000000 NULL
P        5.32090317       5.32265505       0.87071632       0.00000000 NULL
P        1.13353385       3.37728300       1.68740785       0.00000000 NULL
P        3.39684468       2.57976080       2.67562810       0.00000000 NULL
P        7.65710911       5.70512855       8.08254609       0.00000000 NULL
P        4.49050722       5.89731332       3.22820437       0.00000000 NULL
P        1.62490173       1.91429445       0.05423423       0.00000000 NULL
P        6.06705718       6.28061518       6.58007669       0.00000000 NULL
P        4.57253852       2.20332558       7.77015369       0.00000000 NULL
P        2.46799260       1.91948553       5.44623351       0.00000000 NULL
P        2.54279515       5.30162390       5.90600901       0.00000000 NULL
P        5.73624793       3.30305352       5.05049612       0.00000000 NULL
P        3.44878688       5.03085487       1.70388246       0.00000000 NULL
P        1.28408207       5.38244625       0.13066926       0.00000000 NULL
P        2.71511009       6.68481385       0.72684152       0.00000000 NULL
16
Lattice="6.210241832402975 0.15196713360472314 0.09516912854629893 1.2941188307551235 7.035619632964167 -0.06582337803533128 1.7108913006335187 1.5819244131864414 9.194848219572858" Properties=species:S:1:pos:R:3:initial_magmoms:R:1:castep_labels:S:1 n_minim_iter=3 pbc="T T T"
P        6.14762552       5.02577995       7.95889139       0.00000000 NULL
P        5.63258240       1.57487143       5.85355864       0.00000000 NULL
P        5.58532318       5.70723615       0.89371071       0.00000000 NULL
P        1.26829616       3.55228954       1.67680886       0.00000000 NULL
P        3.57263674       2.76022634       2.71251399       0.00000000 NULL
P        8.08942329       6.07458689       8.17414265       0.00000000 NULL
P        4.78577945       6.26278946       3.24740123       0.00000000 NULL
P        1.70833049       2.05395315       0.05274056       0.00000000 NULL
P        6.45498151       6.65903782       6.63553802       0.00000000 NULL
P        4.84671441       2.33025335       7.86113740       0.00000000 NULL
P        2.65300131       2.00990930       5.49417130       0.00000000 NULL
P        2.81486127       5.55703210       5.92109273       0.00000000 NULL
P        6.02369626       3.54948288       5.12718319       0.00000000 NULL
P        3.67131066       5.33481334       1.71049868       0.00000000 NULL
P        1.44299484       5.67891223       0.08525628       0.00000000 NULL
P        2.94956651       7.07824644       0.69371458       0.00000000 NULL
16
Lattice="6.198823892342334 0.2629457347913035 0.16946346064203255 1.4138984410545026 7.161486709423768 -0.07968249788063644 1.8487503411943123 1.596764137030825 9.059739093857608" Properties=species:S:1:pos:R:3:initial_magmoms:R:1:castep_labels:S:1 n_minim_iter=4 pbc="T T T"
P        6.31817303       5.17041713       7.88562160       0.00000000 NULL
P        5.71765509       1.67670687       5.82124272       0.00000000 NULL
P        5.68544816       5.88683741       0.92472395       0.00000000 NULL
P        1.35292174       3.61927843       1.65121789       0.00000000 NULL
P        3.64146734       2.85518084       2.69948998       0.00000000 NULL
P        8.27557195       6.26923074       8.10853342       0.00000000 NULL
P        4.92699317       6.42563064       3.22563910       0.00000000 NULL
P        1.74018410       2.11718085       0.06114556       0.00000000 NULL
P        6.64008844       6.83919636       6.57763472       0.00000000 NULL
P        4.97418584       2.41650367       7.78322094       0.00000000 NULL
P        2.75134932       2.06366365       5.42766651       0.00000000 NULL
P        2.97708437       5.66349017       5.83835967       0.00000000 NULL
P        6.13628787       3.68753317       5.10189133       0.00000000 NULL
P        3.77552047       5.46205943       1.70888209       0.00000000 NULL
P        1.54063323       5.78554189       0.07559697       0.00000000 NULL
P        3.07634648       7.23351817       0.68800869       0.00000000 NULL
16
Lattice="6.137900156625627 0.4998367593165604 0.30363494200210295 1.6629411034637585 7.393065968750466 -0.04899282955040186 2.097274909591788 1.708368467974357 8.744449068798032" Properties=species:S:1:pos:R:3:initial_magmoms:R:1:castep_labels:S:1 n_minim_iter=5 pbc="T T T"
P        6.61690260       5.52906935       7.71962070       0.00000000 NULL
P        5.84348634       1.94405156       5.71911312       0.00000000 NULL
P        5.86428769       6.25192208       1.01958625       0.00000000 NULL
P        1.52304412       3.76148007       1.62051210       0.00000000 NULL
P        3.75476154       3.06977294       2.67321505       0.00000000 NULL
P        8.59124714       6.72899109       7.96099224       0.00000000 NULL
P        5.18873603       6.77203304       3.20465000       0.00000000 NULL
P        1.79682244       2.24127796       0.08972610       0.00000000 NULL
P        6.97297193       7.25091277       6.46467878       0.00000000 NULL
P        5.18846606       2.66356853       7.59176082       0.00000000 NULL
P        2.92520109       2.22290337       5.27101459       0.00000000 NULL
P        3.28381113       5.91874036       5.67820659       0.00000000 NULL
P        6.32264878       4.01170109       5.03853042       0.00000000 NULL
P        3.96777673       5.71815868       1.73503319       0.00000000 NULL
P        1.74360179       5.98487548       0.10037789       0.00000000 NULL
P        3.32700702       7.53610172       0.72586146       0.00000000 NULL
16
Lattice="6.082428084031941 0.6110129136160339 0.29557570932739374 1.7749410654807898 7.530685290284697 0.07939569379116285 2.100381346307494 1.9415356404696036 8.699606326022016" Properties=species:S:1:pos:R:3:initial_magmoms:R:1:castep_labels:S:1 n_minim_iter=6 pbc="T T T"
P        6.64047349       5.86574647       7.74225514       0.00000000 NULL
P        5.80946168       2.18939000       5.68484503       0.00000000 NULL
P        5.91513279       6.46984176       1.11547176       0.00000000 NULL
P        1.58600321       3.87865597       1.67933002       0.00000000 NULL
P        3.75509129       3.23232567       2.69994002       0.00000000 NULL
P        8.60511450       7.11567161       7.99088145       0.00000000 NULL
P        5.25384097       7.02140228       3.28523009       0.00000000 NULL
P        1.81094141       2.30903590       0.11794715       0.00000000 NULL
P        7.02683596       7.59269658       6.52342455       0.00000000 NULL
P        5.18116766       2.93750142       7.57501323       0.00000000 NULL
P        2.93437874       2.41601896       5.25333287       0.00000000 NULL
P        3.34635608       6.17460255       5.72882032       0.00000000 NULL
P        6.32869808       4.27203972       5.05760255       0.00000000 NULL
P        4.01829667       5.88310774       1.82511455       0.00000000 NULL
P        1.83826821       6.10471498       0.19746357       0.00000000 NULL
P        3.42241636       7.72430465       0.84462730       0.00000000 NULL
16
Lattice="5.948702717426969 0.6870456709128703 0.2873557312005844 1.8341500473201904 7.630989746209763 0.1537022039878013 2.0748585314922896 2.08463108740092 8.57576566383567" Properties=species:S:1:pos:R:3:initial_magmoms:R:1:castep_labels:S:1 n_minim_iter=7 pbc="T T T"
P        6.56286490       6.08290444       7.67031853       0.00000000 NULL
P        5.69610823       2.35125577       5.59789853       0.00000000 NULL
P        5.86451995       6.62484948       1.16153645       0.00000000 NULL
P        1.61419827       3.95853377       1.69754328       0.00000000 NULL
P        3.69711495       3.34093485       2.68823132       0.00000000 NULL
P        8.48847717       7.36577734       7.91921170       0.00000000 NULL
P        5.22488059       7.18937249       3.29271572       0.00000000 NULL
P        1.79450401       2.36046513       0.13236600       0.00000000 NULL
P        6.96493560       7.81758990       6.48099735       0.00000000 NULL
P        5.10180635       3.11220024       7.48339255       0.00000000 NULL
P        2.90110697       2.54455212       5.17880431       0.00000000 NULL
P        3.34513530       6.34245141       5.69263893       0.00000000 NULL
P        6.24301620       4.44094797       5.01329136       0.00000000 NULL
P        3.99741417       5.99106540       1.86403225       0.00000000 NULL
P        1.88679707       6.19130627       0.24886510       0.00000000 NULL
P        3.44320747       7.86034395       0.90282155       0.00000000 NULL
16
Lattice="5.9402111257243195 0.736609495310923 0.28943627470556077 1.887028712874659 7.750028205542709 0.19124293367334588 2.0887792774271077 2.173816889323855 8.629980591564884" Properties=species:S:1:pos:R:3:initial_magmoms:R:1:castep_labels:S:1 n_minim_iter=8 pbc="T T T"
P        6.59618342       6.24769382       7.73894022       0.00000000 NULL
P        5.69868613       2.45650591       5.63063026       0.00000000 NULL
P        5.90074255       6.76711330       1.20055735       0.00000000 NULL
P        1.64726714       4.03332234       1.72951249       0.00000000 NULL
P        3.70855481       3.42674005       2.72060388       0.00000000 NULL
P        8.52310328       7.55975198       7.99383472       0.00000000 NULL
P        5.26797681       7.34083968       3.34136507       0.00000000 NULL
P        1.80542671       2.40970123       0.14207827       0.00000000 NULL
P        7.00938315       8.00368643       6.54536742       0.00000000 NULL
P        5.11871863       3.22987698       7.54048918       0.00000000 NULL
P        2.91773458       2.63421847       5.21079093       0.00000000 NULL
P        3.38494962       6.48322833       5.74927731       0.00000000 NULL
P        6.26841357       4.56823709       5.06063982       0.00000000 NULL
P        4.02949831       6.09885695       1.90941044       0.00000000 NULL
P        1.93627716       6.29218277       0.27561153       0.00000000 NULL
P        3.49289029       8.00119771       0.94311628       0.00000000 NULL
16
Lattice="5.890202707709712 0.7521557620564633 0.2906093151129518 1.8950208256426002 7.749795394913532 0.20826605040131355 2.082278961221947 2.1999651717685507 8.59924287320368" Properties=species:S:1:pos:R:3:initial_magmoms:R:1:castep_labels:S:1 n_minim_iter=9 pbc="T T T"
P        6.56297493       6.27889740       7.72252486       0.00000000 NULL
P        5.65695322       2.48761361       5.61065160       0.00000000 NULL
P        5.87023825       6.78354482       1.21346475       0.00000000 NULL
P        1.65024021       4.03876155       1.73383655       0.00000000 NULL
P        3.68469138       3.44129054       2.71979406       0.00000000 NULL
P        8.47447690       7.59329555       7.97943958       0.00000000 NULL
P        5.24627707       7.35697432       3.34310158       0.00000000 NULL
P        1.79589859       2.41534900       0.14650555       0.00000000 NULL
P        6.97645483       8.03073378       6.53446843       0.00000000 NULL
P        5.08956588       3.26034100       7.51971635       0.00000000 NULL
P        2.90489670       2.65806439       5.19146420       0.00000000 NULL
P        3.37739096       6.50191002       5.73909707       0.00000000 NULL
P        6.23316084       4.59187161       5.05197790       0.00000000 NULL
P        4.01232991       6.10395139       1.92054296       0.00000000 NULL
P        1.94361889       6.29377313       0.28650329       0.00000000 NULL
P        3.48721456       8.00905752       0.95679890       0.00000000 NULL
16
Lattice="5.86337601927748 0.7740215363965346 0.2923224084009824 1.9141594933512143 7.779404035513582 0.22469380809430686 2.083937919723542 2.2335084230534923 8.60196698367998" Properties=species:S:1:pos:R:3:initial_magmoms:R:1:castep_labels:S:1 n_minim_iter=10 pbc="T T T"
P        6.55720970       6.33518333       7.73512747       0.00000000 NULL
P        5.63758024       2.52987585       5.61175232       0.00000000 NULL
P        5.86566658       6.82871294       1.22955998       0.00000000 NULL
P        1.66109594       4.05958733       1.74430964       0.00000000 NULL
P        3.67683147       3.47012682       2.72908683       0.00000000 NULL
P        8.46171278       7.65801473       7.99502309       0.00000000 NULL
P        5.24820400       7.40294969       3.35666916       0.00000000 NULL
P        1.79450088       2.43133350       0.15109691       0.00000000 NULL
P        6.97344755       8.09037713       6.54698658       0.00000000 NULL
P        5.08104569       3.30428559       7.52776937       0.00000000 NULL
P        2.90396920       2.69256337       5.19182375       0.00000000 NULL
P        3.38549434       6.54530268       5.74991830       0.00000000 NULL
P        6.22408416       4.63532904       5.06208507       0.00000000 NULL
P        4.01309239       6.13305950       1.93813817       0.00000000 NULL
P        1.96210140       6.32022436       0.29713441       0.00000000 NULL
P        3.49883089       8.04858632       0.97274584       0.00000000 NULL
16
Lattice="5.729315807049775 0.8751309446162688 0.30209746829152845 2.000841327334179 7.9022981103729615 0.2982879422698327 2.0919357657422664 2.38158845942818 8.61381871951877" Properties=species:S:1:pos:R:3:initial_magmoms:R:1:castep_labels:S:1 n_minim_iter=11 pbc="T T T"
P        6.52384298       6.58266282       7.79290228       0.00000000 NULL
P        5.54031823       2.72070668       5.61704424       0.00000000 NULL
P        5.83570317       7.02712217       1.30400239       0.00000000 NULL
P        1.70918300       4.14736979       1.79179936       0.00000000 NULL
P        3.63644647       3.59672622       2.77324127       0.00000000 NULL
P        8.39270899       7.94050518       8.06763192       0.00000000 NULL
P        5.25003690       7.60118299       3.41747194       0.00000000 NULL
P        1.78581193       2.50262865       0.17279861       0.00000000 NULL
P        6.95050154       8.34931826       6.60198585       0.00000000 NULL
P        5.03689826       3.49972498       7.56544674       0.00000000 NULL
P        2.89771361       2.84835862       5.19164592       0.00000000 NULL
P        3.41989273       6.73169006       5.79748431       0.00000000 NULL
P        6.17494471       4.82613036       5.10931421       0.00000000 NULL
P        4.01038002       6.25470523       2.01982814       0.00000000 NULL
P        2.04725524       6.43251921       0.34346193       0.00000000 NULL
P        3.54840689       8.21730386       1.04451531       0.00000000 NULL
16
Lattice="5.652446208398775 0.9639055646571094 0.34329362171033906 2.084360871966211 8.011440358862108 0.34802460800953083 2.1580983669042917 2.483382588722937 8.739134108710937" Properties=species:S:1:pos:R:3:initial_magmoms:R:1:castep_labels:S:1 n_minim_iter=12 pbc="T T T"
P        6.57947902       6.77746914       7.95790151       0.00000000 NULL
P        5.51746863       2.87580523       5.71200738       0.00000000 NULL
P        5.84644962       7.20452777       1.39523522       0.00000000 NULL
P        1.76427259       4.21302375       1.85091912       0.00000000 NULL
P        3.64230575       3.69920726       2.86377329       0.00000000 NULL
P        8.42718881       8.15625591       8.25945382       0.00000000 NULL
P        5.29591066       7.76375677       3.51284352       0.00000000 NULL
P        1.79020369       2.57477056       0.19873942       0.00000000 NULL
P        6.99979549       8.55337642       6.73278084       0.00000000 NULL
P        5.07372461       3.64623708       7.71384439       0.00000000 NULL
P        2.93878815       2.98058062       5.25533162       0.00000000 NULL
P        3.49460856       6.87405426       5.90399584       0.00000000 NULL
P        6.20350928       4.97281840       5.23597644       0.00000000 NULL
P        4.03447054       6.34715145       2.12588470       0.00000000 NULL
P        2.14513566       6.53920781       0.36977874       0.00000000 NULL
P        3.61320833       8.36691146       1.10937376       0.00000000 NULL
16
Lattice="5.540977954546254 0.9507747737984641 0.3442505100058941 2.049710200250676 7.923742964805838 0.3451223950683768 2.128697946552945 2.455745077347545 8.641572300979677" Properties=species:S:1:pos:R:3:initial_magmoms:R:1:castep_labels:S:1 n_minim_iter=13 pbc="T T T"
P        6.46824276       6.70227322       7.87432171       0.00000000 NULL
P        5.41253653       2.84966160       5.64751713       0.00000000 NULL
P        5.73475214       7.12941583       1.38769071       0.00000000 NULL
P        1.73621874       4.16218786       1.83324797       0.00000000 NULL
P        3.57540243       3.65745357       2.84185375       0.00000000 NULL
P        8.27391772       8.05582954       8.17402088       0.00000000 NULL
P        5.19817954       7.67377687       3.47226217       0.00000000 NULL
P        1.75632937       2.55454010       0.19987146       0.00000000 NULL
P        6.87326964       8.45246977       6.65476948       0.00000000 NULL
P        4.98842637       3.60299784       7.63346673       0.00000000 NULL
P        2.89128299       2.95888347       5.18774245       0.00000000 NULL
P        3.43422274       6.79541246       5.83656900       0.00000000 NULL
P        6.09695735       4.91023846       5.18419391       0.00000000 NULL
P        3.95696677       6.26671061       2.11509338       0.00000000 NULL
P        2.12067949       6.47216625       0.36156652       0.00000000 NULL
P        3.54807219       8.27724568       1.09749909       0.00000000 NULL
16
Lattice="5.582319833054259 0.9693276940670772 0.34868749220767314 2.0775851524254176 7.997588706734327 0.3448765247802037 2.1503704623640765 2.4755478217732936 8.719145191328987" Properties=species:S:1:pos:R:3:initial_magmoms:R:1:castep_labels:S:1 n_minim_iter=14 pbc="T T T"
P        6.52842095       6.76713155       7.94486941       0.00000000 NULL
P        5.45577685       2.88295650       5.69684622       0.00000000 NULL
P        5.78715262       7.20492605       1.39949675       0.00000000 NULL
P        1.75569910       4.19908907       1.84923809       0.00000000 NULL
P        3.60836566       3.69455712       2.86998229       0.00000000 NULL
P        8.34805338       8.13392816       8.24776775       0.00000000 NULL
P        5.24841542       7.74879118       3.50097241       0.00000000 NULL
P        1.77287640       2.58395567       0.20164150       0.00000000 NULL
P        6.93654723       8.53430935       6.70953953       0.00000000 NULL
P        5.03358296       3.63865472       7.70354874       0.00000000 NULL
P        2.91868052       2.99092921       5.23041306       0.00000000 NULL
P        3.47059522       6.85679073       5.88518172       0.00000000 NULL
P        6.15273203       4.96101446       5.23156736       0.00000000 NULL
P        3.99346410       6.32312315       2.13636384       0.00000000 NULL
P        2.15210594       6.53581761       0.35992987       0.00000000 NULL
P        3.58665626       8.35748704       1.10395604       0.00000000 NULL
16
Lattice="5.568881714489996 0.9708790939887701 0.35056669254383066 2.0768493148001426 7.999077580261185 0.3446411958323838 2.150295549685424 2.4754250175937784 8.721975822520005" Properties=species:S:1:pos:R:3:initial_magmoms:R:1:castep_labels:S:1 n_minim_iter=15 pbc="T T T"
P        6.52038336       6.76871301       7.94895438       0.00000000 NULL
P        5.44455752       2.88638540       5.69833713       0.00000000 NULL
P        5.77618489       7.20926039       1.40210161       0.00000000 NULL
P        1.75441950       4.19805903       1.85064852       0.00000000 NULL
P        3.60264741       3.69555445       2.87439506       0.00000000 NULL
P        8.33428701       8.13321546       8.25249526       0.00000000 NULL
P        5.24006090       7.74983498       3.50159709       0.00000000 NULL
P        1.76969134       2.58785790       0.20266769       0.00000000 NULL
P        6.92545831       8.53472718       6.71009625       0.00000000 NULL
P        5.02740139       3.63903647       7.70802629       0.00000000 NULL
P        2.91578761       2.99546308       5.22885512       0.00000000 NULL
P        3.46700818       6.85671419       5.88592005       0.00000000 NULL
P        6.14450000       4.96118379       5.23542601       0.00000000 NULL
P        3.98571486       6.32087320       2.14116506       0.00000000 NULL
P        2.15511979       6.53929569       0.35802037       0.00000000 NULL
P        3.58209973       8.36015117       1.10390143       0.00000000 NULL
16
Lattice="5.5200038635760365 0.98081056775603 0.3591820986561868 2.078881720388312 8.020037269295527 0.342912576536603 2.1538172000654594 2.4778885910218373 8.747948656255438" Properties=species:S:1:pos:R:3:initial_magmoms:R:1:castep_labels:S:1 n_minim_iter=16 pbc="T T T"
P        6.49755877       6.78727824       7.97850362       0.00000000 NULL
P        5.40531124       2.90680164       5.71333341       0.00000000 NULL
P        5.73973181       7.24237514       1.41464280       0.00000000 NULL
P        1.75231729       4.20049419       1.85928453       0.00000000 NULL
P        3.58488378       3.70663242       2.89819808       0.00000000 NULL
P        8.28988474       8.14439696       8.28505938       0.00000000 NULL
P        5.21406435       7.76863218       3.50881338       0.00000000 NULL
P        1.75942566       2.61035924       0.20712531       0.00000000 NULL
P        6.89014840       8.55168046       6.72164109       0.00000000 NULL
P        5.00958228       3.64666641       7.73949737       0.00000000 NULL
P        2.90852810       3.02063149       5.22937924       0.00000000 NULL
P        3.45850927       6.86765065       5.89730932       0.00000000 NULL
P        6.12013969       4.97136160       5.26004097       0.00000000 NULL
P        3.95962765       6.32204142       2.16506701       0.00000000 NULL
P        2.17397780       6.56718205       0.34903807       0.00000000 NULL
P        3.57002664       8.38712478       1.10408308       0.00000000 NULL
16
Lattice="5.278835661543956 1.0214034426858147 0.3988539053197507 2.079675800371736 8.184968412884595 0.3202469998364272 2.1647370162280004 2.48421918612565 8.890403823356863" Properties=species:S:1:pos:R:3:initial_magmoms:R:1:castep_labels:S:1 n_minim_iter=17 pbc="T T T"
P        6.37928955       6.89792680       8.12900107       0.00000000 NULL
P        5.20176559       3.01997762       5.78330080       0.00000000 NULL
P        5.54824908       7.46265494       1.47157683       0.00000000 NULL
P        1.72867355       4.21824865       1.90582154       0.00000000 NULL
P        3.50033062       3.77177108       3.03870623       0.00000000 NULL
P        8.05524346       8.20316657       8.44515107       0.00000000 NULL
P        5.06973008       7.89948734       3.53154482       0.00000000 NULL
P        1.70727621       2.76320110       0.22839717       0.00000000 NULL
P        6.69109519       8.65765734       6.76103477       0.00000000 NULL
P        4.91890653       3.67693270       7.91066028       0.00000000 NULL
P        2.86807993       3.18091790       5.20534931       0.00000000 NULL
P        3.40128890       6.94071548       5.94565664       0.00000000 NULL
P        6.00397867       5.03017057       5.38981541       0.00000000 NULL
P        3.80899813       6.33588472       2.30223617       0.00000000 NULL
P        2.29266304       6.78402106       0.28244989       0.00000000 NULL
P        3.49817310       8.58152413       1.08754138       0.00000000 NULL
16
Lattice="5.619484095214348 0.8728062881797473 0.30184440535957546 1.9783526221814565 7.943072397664829 0.5203691694662959 2.0639245882107344 2.6952879996040964 8.354655294848182" Properties=species:S:1:pos:R:3:initial_magmoms:R:1:castep_labels:S:1 n_minim_iter=18 pbc="T T T"
P        6.44895497       6.83340309       7.67716849       0.00000000 NULL
P        5.35741961       3.05993434       5.40435432       0.00000000 NULL
P        5.67153746       7.21131602       1.51608797       0.00000000 NULL
P        1.66584577       4.09506390       1.91524010       0.00000000 NULL
P        3.60075239       3.69460461       2.93044965       0.00000000 NULL
P        8.24468990       8.09057957       7.98922581       0.00000000 NULL
P        5.09917840       7.68574300       3.45505564       0.00000000 NULL
P        1.74327935       2.70837309       0.26848349       0.00000000 NULL
P        6.71384469       8.47848277       6.45395668       0.00000000 NULL
P        5.00440493       3.74004645       7.43277959       0.00000000 NULL
P        2.88041859       3.27990645       4.85176515       0.00000000 NULL
P        3.32061153       6.84307549       5.70635997       0.00000000 NULL
P        6.19403769       4.96054389       5.09753130       0.00000000 NULL
P        3.81547448       6.13923638       2.32833232       0.00000000 NULL
P        2.35752413       6.64483296       0.43174168       0.00000000 NULL
P        3.46467102       8.32150473       1.21307143       0.00000000 NULL
16
Lattice="5.444124893515551 1.0075566968049292 0.2756396218852027 2.0944751097462055 8.51947847754759 0.48927327211170185 2.016342153863851 2.822954660264051 9.052883574710412" Properties=species:S:1:pos:R:3:initial_magmoms:R:1:castep_labels:S:1 n_minim_iter=19 pbc="T T T"
P        6.34727266       7.30104213       8.25332820       0.00000000 NULL
P        5.21128109       3.28178215       5.81006631       0.00000000 NULL
P        5.63911485       7.77610501       1.54058907       0.00000000 NULL
P        1.69623592       4.38296954       2.04756729       0.00000000 NULL
P        3.54975759       3.97373465       3.12142878       0.00000000 NULL
P        8.10972187       8.67755331       8.56317125       0.00000000 NULL
P        5.08574464       8.26124574       3.66683106       0.00000000 NULL
P        1.74644689       2.92172533       0.25475668       0.00000000 NULL
P        6.65381149       9.09890752       6.89089015       0.00000000 NULL
P        4.88788603       3.99447700       8.02256095       0.00000000 NULL
P        2.83331539       3.49987373       5.23768880       0.00000000 NULL
P        3.33325187       7.30279248       6.12435077       0.00000000 NULL
P        6.08375901       5.35219526       5.45755014       0.00000000 NULL
P        3.81406617       6.58954885       2.45817737       0.00000000 NULL
P        2.43218606       7.13198989       0.39690999       0.00000000 NULL
P        3.53624703       8.94490862       1.23235378       0.00000000 NULL
16
Lattice="5.2255800589660035 0.9460983362834923 0.28931923406210847 1.987325609498642 8.24136520364683 0.46274264118666975 1.967187196942215 2.704880119559217 8.711673286966471" Properties=species:S:1:pos:R:3:initial_magmoms:R:1:castep_labels:S:1 n_minim_iter=20 pbc="T T T"
P        6.11117056       7.02607070       7.95407332       0.00000000 NULL
P        5.01975429       3.14363779       5.60878500       0.00000000 NULL
P        5.39613000       7.50100840       1.49540589       0.00000000 NULL
P        1.62341956       4.22881607       1.96817501       0.00000000 NULL
P        3.40959647       3.82438714       3.01189858       0.00000000 NULL
P        7.79712555       8.34055790       8.25472596       0.00000000 NULL
P        4.87221513       7.96434606       3.52979390       0.00000000 NULL
P        1.67056560       2.82423661       0.24858829       0.00000000 NULL
P        6.39166063       8.76049552       6.64073295       0.00000000 NULL
P        4.71534720       3.82589482       7.73215445       0.00000000 NULL
P        2.73372696       3.36734451       5.04231697       0.00000000 NULL
P        3.20230796       7.04320652       5.89382204       0.00000000 NULL
P        5.84929221       5.13740711       5.26755054       0.00000000 NULL
P        3.65366369       6.36056359       2.36933708       0.00000000 NULL
P        2.31865875       6.89813429       0.38008527       0.00000000 NULL
P        3.37420795       8.64283281       1.18311543       0.00000000 NULL
16
Lattice="5.255201613009459 0.9602941935468635 0.31981184155120107 2.008289164940127 8.310761773242923 0.45590273746032456 2.024064076248392 2.7072210915317547 8.782735421611779" Properties=species:S:1:pos:R:3:initial_magmoms:R:1:castep_labels:S:1 n_minim_iter=21 pbc="T T T"
P        6.18969848       7.06981463       8.03183611       0.00000000 NULL
P        5.07734763       3.16277978       5.67352413       0.00000000 NULL
P        5.43941563       7.56744632       1.51891404       0.00000000 NULL
P        1.64407650       4.25836709       1.98190723       0.00000000 NULL
P        3.44796522       3.85310198       3.04482173       0.00000000 NULL
P        7.88878852       8.39797591       8.34114926       0.00000000 NULL
P        4.92286466       8.02768837       3.56424751       0.00000000 NULL
P        1.68416127       2.85125749       0.25291882       0.00000000 NULL
P        6.46598596       8.82282349       6.70375659       0.00000000 NULL
P        4.78310857       3.84467515       7.80934981       0.00000000 NULL
P        2.77713469       3.38681634       5.08764406       0.00000000 NULL
P        3.25443130       7.08843980       5.93854421       0.00000000 NULL
P        5.91199268       5.17544061       5.32874798       0.00000000 NULL
P        3.68968964       6.40965358       2.39306971       0.00000000 NULL
P        2.34127800       6.95724465       0.37773321       0.00000000 NULL
P        3.40671896       8.71728017       1.18960593       0.00000000 NULL
16
Lattice="5.239859580188518 0.9577988434025947 0.33610546650086676 2.002764489266946 8.312704513116502 0.4498719201515828 2.044166636934417 2.694851492765133 8.785972817109782" Properties=species:S:1:pos:R:3:initial_magmoms:R:1:castep_labels:S:1 n_minim_iter=22 pbc="T T T"
P        6.19448575       7.05804106       8.04196843       0.00000000 NULL
P        5.07866213       3.15516110       5.68678493       0.00000000 NULL
P        5.42640711       7.56699042       1.52626093       0.00000000 NULL
P        1.64326124       4.25435150       1.98159626       0.00000000 NULL
P        3.44720863       3.84905883       3.05056360       0.00000000 NULL
P        7.88945503       8.38470566       8.35459902       0.00000000 NULL
P        4.91697324       8.02323785       3.56826194       0.00000000 NULL
P        1.68029947       2.85359163       0.25442226       0.00000000 NULL
P        6.46463131       8.81220630       6.71111721       0.00000000 NULL
P        4.79181376       3.83358772       7.82041853       0.00000000 NULL
P        2.78408045       3.38106393       5.09155282       0.00000000 NULL
P        3.26036061       7.07960385       5.93880028       0.00000000 NULL
P        5.90973627       5.16765434       5.34120093       0.00000000 NULL
P        3.68406768       6.40604674       2.39678533       0.00000000 NULL
P        2.33653538       6.95919561       0.37490435       0.00000000 NULL
P        3.39925232       8.71855050       1.18812196       0.00000000 NULL
