12
Lattice="3.5991862915391457 0.0 0.0 0.0 10.074344754325002 0.0 0.0 0.0 10.074344754325002" Properties=species:S:1:pos:R:3:initial_magmoms:R:1:castep_labels:S:1:forces:R:3 n_minim_iter=1 energy=-61.532231998856 stress="-0.00028287104822026694 0.0 0.0 0.0 0.0017523057966301447 0.0 0.0 0.0 0.0017523057966301447" free_energy=-61.532231998856 pbc="T T T"
P        3.21104855       2.77725261       0.28949145       0.00000000 NULL       0.23628000      -0.04860300      -0.04704700
P        1.41145540       7.29709214       9.78485331       0.00000000 NULL       0.23628100       0.04860400       0.04704800
P        2.31125197       0.28949145       7.29709214       0.00000000 NULL       0.23628000      -0.04704700       0.04860300
P        0.51165883       9.78485331       2.77725261       0.00000000 NULL       0.23628100       0.04704800      -0.04860400
P        3.23177407       9.44233594       5.36012538       0.00000000 NULL      -0.53769900      -0.03340800       0.36917000
P        1.43218093       0.63200881       4.71421937       0.00000000 NULL      -0.53769800       0.03340800      -0.36917000
P        2.33197750       5.36012538       0.63200881       0.00000000 NULL      -0.53769900       0.36917000       0.03340800
P        0.53238436       4.71421937       9.44233594       0.00000000 NULL      -0.53769700      -0.36917000      -0.03340800
P        2.76794499       8.75065893       0.63185424       0.00000000 NULL       0.30141700      -0.01579200      -0.04993200
P        0.96835184       1.32368582       9.44249052       0.00000000 NULL       0.30141900       0.01579100       0.04993200
P        1.86814841       0.63185424       1.32368582       0.00000000 NULL       0.30141700      -0.04993300       0.01579200
P        0.06855527       9.44249052       8.75065893       0.00000000 NULL       0.30141900       0.04993200      -0.01579100
12
Lattice="3.6051944774521494 0.0 0.0 0.0 9.970789222689158 0.0 0.0 0.0 9.970789222689158" Properties=species:S:1:pos:R:3:initial_magmoms:R:1:castep_labels:S:1:forces:R:3 n_minim_iter=2 energy=-61.557799676996 stress="-0.00462668754800452 0.0 0.0 0.0 -0.004989087411483732 0.0 0.0 0.0 -0.004989087411483732" free_energy=-61.557799676996 pbc="T T T"
P        3.22022915       2.74792838       0.28576410       0.00000000 NULL       0.16768900      -0.04249600       0.06394500
P        1.41763191       7.22286084       9.68502512       0.00000000 NULL       0.16769100       0.04249700      -0.06394400
P        2.31893053       0.28576410       7.22286084       0.00000000 NULL       0.16768900       0.06394500       0.04249500
P        0.51633330       9.68502512       2.74792838       0.00000000 NULL       0.16769100      -0.06394300      -0.04249700
P        3.22847506       9.34474319       5.31092573       0.00000000 NULL      -0.50966600      -0.13425800       0.28495800
P        1.42587782       0.62604603       4.65986349       0.00000000 NULL      -0.50966300       0.13425800      -0.28495700
P        2.32717644       5.31092573       0.62604603       0.00000000 NULL      -0.50966600       0.28495800       0.13425800
P        0.52457920       4.65986349       9.34474319       0.00000000 NULL      -0.50966300      -0.28495700      -0.13425800
P        2.77743910       8.66045746       0.62456162       0.00000000 NULL       0.34197200      -0.10119700       0.06366500
P        0.97484186       1.31033176       9.34622761       0.00000000 NULL       0.34197500       0.10119500      -0.06366500
P        1.87614048       0.62456162       1.31033176       0.00000000 NULL       0.34197300       0.06366400       0.10119600
P        0.07354324       9.34622761       8.66045746       0.00000000 NULL       0.34197600      -0.06366500      -0.10119500
12
Lattice="3.7071328865228548 0.0 0.0 0.0 9.904910331702117 0.0 0.0 0.0 9.904910331702117" Properties=species:S:1:pos:R:3:initial_magmoms:R:1:castep_labels:S:1:forces:R:3 n_minim_iter=3 energy=-61.661768123152 stress="0.0032516664083345097 -0.0 -0.0 -0.0 -0.0030501797816896424 -0.0 -0.0 -0.0 -0.0030501797816896424" free_energy=-61.661768123152 pbc="T T T"
P        3.32554852       2.72686946       0.28247428       0.00000000 NULL       0.29494800      -0.15781800       0.05703900
P        1.47198208       7.17804087       9.62243606       0.00000000 NULL       0.29494700       0.15781800      -0.05703900
P        2.39876530       0.28247428       7.17804087       0.00000000 NULL       0.29494800       0.05703900       0.15781900
P        0.54519885       9.62243606       2.72686946       0.00000000 NULL       0.29494700      -0.05703900      -0.15781800
P        3.28547722       9.27959767       5.29737721       0.00000000 NULL      -0.46454800       0.08250500       0.02932200
P        1.43191078       0.62531266       4.60753312       0.00000000 NULL      -0.46454800      -0.08250500      -0.02932200
P        2.35869400       5.29737721       0.62531266       0.00000000 NULL      -0.46454800       0.02932200      -0.08250500
P        0.50512756       4.60753312       9.27959767       0.00000000 NULL      -0.46454800      -0.02932200       0.08250500
P        2.87599071       8.60112194       0.61889105       0.00000000 NULL       0.16960100      -0.08220400      -0.00823000
P        1.02242426       1.30378840       9.28601928       0.00000000 NULL       0.16960000       0.08220400       0.00823000
P        1.94920748       0.61889105       1.30378840       0.00000000 NULL       0.16960100      -0.00823000       0.08220400
P        0.09564104       9.28601928       8.60112194       0.00000000 NULL       0.16960000       0.00823000      -0.08220400
12
Lattice="3.550951757839204 0.0 0.0 0.0 10.14114456724411 0.0 0.0 0.0 10.14114456724411" Properties=species:S:1:pos:R:3:initial_magmoms:R:1:castep_labels:S:1:forces:R:3 n_minim_iter=4 energy=-62.032886166816 stress="-0.0021201023051247068 -0.0 -0.0 -0.0 -0.0042030458632452 -0.0 -0.0 -0.0 -0.0042030458632452" free_energy=-62.032886166816 pbc="T T T"
P        3.25384844       2.76962715       0.28727103       0.00000000 NULL      -0.10893800      -0.30749600       0.30210600
P        1.47837256       7.37151742       9.85387354       0.00000000 NULL      -0.10893900       0.30749500      -0.30210700
P        2.36611050       0.28727103       7.37151742       0.00000000 NULL      -0.10893800       0.30210600       0.30749600
P        0.59063462       9.85387354       2.76962715       0.00000000 NULL      -0.10893900      -0.30210700      -0.30749500
P        3.00597149       9.49893594       5.49592911       0.00000000 NULL      -0.29156500       0.13228800      -0.51239400
P        1.23049561       0.64220863       4.64521545       0.00000000 NULL      -0.29156600      -0.13228800       0.51239400
P        2.11823355       5.49592911       0.64220863       0.00000000 NULL      -0.29156500      -0.51239400      -0.13228800
P        0.34275767       4.64521545       9.49893594       0.00000000 NULL      -0.29156600       0.51239300       0.13228800
P        2.82750952       8.79450510       0.62584308       0.00000000 NULL       0.40050500       0.03261900      -0.12394300
P        1.05203364       1.34663947       9.51530149       0.00000000 NULL       0.40050300      -0.03261800       0.12394400
P        1.93977158       0.62584308       1.34663947       0.00000000 NULL       0.40050400      -0.12394300      -0.03261900
P        0.16429570       9.51530149       8.79450510       0.00000000 NULL       0.40050300       0.12394300       0.03261800
12
Lattice="3.498767618911731 0.0 0.0 0.0 10.274704370961832 0.0 0.0 0.0 10.274704370961832" Properties=species:S:1:pos:R:3:initial_magmoms:R:1:castep_labels:S:1:forces:R:3 n_minim_iter=5 energy=-62.573842796526 stress="-0.0013885785337963133 -0.0 -0.0 -0.0 -0.001255213916481087 -0.0 -0.0 -0.0 -0.0012551868428681526" free_energy=-62.573842796526 pbc="T T T"
P        3.27002358       2.71581130       0.33743062       0.00000000 NULL      -0.23013500       0.10630000       0.18482900
P        1.52063977       7.55889307       9.93727375       0.00000000 NULL      -0.23013700      -0.10630000      -0.18483000
P        2.39533167       0.33743062       7.55889307       0.00000000 NULL      -0.23013500       0.18482900      -0.10629900
P        0.64594786       9.93727375       2.71581130       0.00000000 NULL      -0.23013700      -0.18483000       0.10630100
P        2.73064695       9.65722627       5.56849207       0.00000000 NULL      -0.12547300       0.08023900      -0.21913400
P        0.98126314       0.61747810       4.70621230       0.00000000 NULL      -0.12547500      -0.08023900       0.21913300
P        1.85595504       5.56849207       0.61747810       0.00000000 NULL      -0.12547300      -0.21913400      -0.08023900
P        0.10657123       4.70621230       9.65722627       0.00000000 NULL      -0.12547500       0.21913400       0.08023900
P        2.95311326       8.91522818       0.58322641       0.00000000 NULL       0.35561100      -0.53593800      -0.10683600
P        1.20372945       1.35947619       9.69147796       0.00000000 NULL       0.35560900       0.53594000       0.10683600
P        2.07842136       0.58322641       1.35947619       0.00000000 NULL       0.35561100      -0.10683600       0.53593800
P        0.32903755       9.69147796       8.91522818       0.00000000 NULL       0.35560800       0.10683600      -0.53593900
12
Lattice="3.3983338663096343 0.0 0.0 0.0 10.327850157539897 0.0 0.0 0.0 10.327850157539897" Properties=species:S:1:pos:R:3:initial_magmoms:R:1:castep_labels:S:1:forces:R:3 n_minim_iter=6 energy=-63.089342500988 stress="-0.006251021636771247 -0.0 -0.0 -0.0 -0.0017203634317309608 0.0 -0.0 0.0 -0.0017203634317309608" free_energy=-63.089342500988 pbc="T T T"
P        3.20371256       2.69319245       0.39855031       0.00000000 NULL      -0.34821400       0.33256100       0.20807800
P        1.50454563       7.63465771       9.92929985       0.00000000 NULL      -0.34821500      -0.33256200      -0.20807900
P        2.35412909       0.39855031       7.63465771       0.00000000 NULL      -0.34821400       0.20807800      -0.33256100
P        0.65496216       9.92929985       2.69319245       0.00000000 NULL      -0.34821500      -0.20807900       0.33256200
P        2.43600941       9.74870169       5.58975555       0.00000000 NULL      -0.00774400      -0.43290900       0.14183500
P        0.73684248       0.57914847       4.73809461       0.00000000 NULL      -0.00774500       0.43290900      -0.14183500
P        1.58642594       5.58975555       0.57914847       0.00000000 NULL      -0.00774500       0.14183500       0.43290900
P       -0.11274099       4.73809461       9.74870169       0.00000000 NULL      -0.00774400      -0.14183500      -0.43290900
P        3.05703933       8.83939388       0.52550659       0.00000000 NULL       0.35596000      -0.26542400      -0.20546200
P        1.35787240       1.48845628       9.80234357       0.00000000 NULL       0.35595900       0.26542400       0.20546200
P        2.20745587       0.52550659       1.48845628       0.00000000 NULL       0.35595900      -0.20546200       0.26542400
P        0.50828893       9.80234357       8.83939388       0.00000000 NULL       0.35595900       0.20546200      -0.26542400
12
Lattice="3.324436032955839 0.0 0.0 0.0 10.369297801786397 0.0 0.0 0.0 10.369297801786397" Properties=species:S:1:pos:R:3:initial_magmoms:R:1:castep_labels:S:1:forces:R:3 n_minim_iter=7 energy=-63.217396611627 stress="-0.011422679993480223 0.0 -0.0 0.0 -0.001163263875800936 -0.0 -0.0 -0.0 -0.001163263875800936" free_energy=-63.217396611627 pbc="T T T"
P        3.13300731       2.70949161       0.43218010       0.00000000 NULL      -0.21429000       0.43277500       0.20968200
P        1.47078929       7.65980619       9.93711771       0.00000000 NULL      -0.21429000      -0.43277500      -0.20968200
P        2.30189830       0.43218010       7.65980619       0.00000000 NULL      -0.21429000       0.20968200      -0.43277500
P        0.63968028       9.93711771       2.70949161       0.00000000 NULL      -0.21429000      -0.20968200       0.43277500
P        2.32477972       9.76387934       5.61435238       0.00000000 NULL       0.02584400      -0.24212200       0.17207100
P        0.66256171       0.60541846       4.75494542       0.00000000 NULL       0.02584400       0.24212200      -0.17207100
P        1.49367072       5.61435238       0.60541846       0.00000000 NULL       0.02584400       0.17207100       0.24212200
P       -0.16854730       4.75494542       9.76387934       0.00000000 NULL       0.02584400      -0.17207100      -0.24212200
P        3.04986056       8.84959854       0.48547981       0.00000000 NULL       0.18844600      -0.34021600      -0.07289500
P        1.38764255       1.51969926       9.88381799       0.00000000 NULL       0.18844700       0.34021600       0.07289500
P        2.21875156       0.48547981       1.51969926       0.00000000 NULL       0.18844600      -0.07289500       0.34021600
P        0.55653354       9.88381799       8.84959854       0.00000000 NULL       0.18844700       0.07289500      -0.34021600
12
Lattice="3.377578893180561 0.0 0.0 0.0 10.278461386437177 0.0 0.0 0.0 10.278461386437177" Properties=species:S:1:pos:R:3:initial_magmoms:R:1:castep_labels:S:1:forces:R:3 n_minim_iter=8 energy=-63.405927163341 stress="-0.001631812189145963 -0.0 0.0 -0.0 0.0022433914534815465 0.0 0.0 0.0 0.0022433914534815465" free_energy=-63.405927163341 pbc="T T T"
P        3.23273780       2.73489275       0.52089708       0.00000000 NULL      -0.28662800       0.37502100       0.04282900
P        1.54394836       7.54356863       9.75756430       0.00000000 NULL      -0.28662900      -0.37502100      -0.04282900
P        2.38834308       0.52089708       7.54356863       0.00000000 NULL      -0.28662800       0.04282900      -0.37502000
P        0.69955363       9.75756430       2.73489275       0.00000000 NULL      -0.28662900      -0.04282900       0.37502100
P        2.25604018       9.66524125       5.54077962       0.00000000 NULL       0.17028600      -0.08204600       0.48224100
P        0.56725074       0.61322013       4.73768177       0.00000000 NULL       0.17028500       0.08204600      -0.48224100
P        1.41164546       5.54077962       0.61322013       0.00000000 NULL       0.17028500       0.48224100       0.08204600
P       -0.27714399       4.73768177       9.66524125       0.00000000 NULL       0.17028600      -0.48224100      -0.08204600
P        3.15486926       8.71140479       0.39423299       0.00000000 NULL       0.11634300      -0.19577200      -0.11413700
P        1.46607981       1.56705660       9.88422840       0.00000000 NULL       0.11634200       0.19577200       0.11413800
P        2.31047453       0.39423299       1.56705660       0.00000000 NULL       0.11634300      -0.11413800       0.19577200
P        0.62168509       9.88422840       8.71140479       0.00000000 NULL       0.11634200       0.11413800      -0.19577200
12
Lattice="3.3633951657729404 0.0 0.0 0.0 10.298043284084299 0.0 0.0 0.0 10.298043284084299" Properties=species:S:1:pos:R:3:initial_magmoms:R:1:castep_labels:S:1:forces:R:3 n_minim_iter=9 energy=-63.512608766278 stress="-0.0006393280457419479 0.0 0.0 0.0 0.0011133851377192587 -0.0 0.0 -0.0 0.0011133851377192587" free_energy=-63.512608766278 pbc="T T T"
P        3.21183121       2.78470645       0.58996008       0.00000000 NULL      -0.01896400       0.02661600      -0.01667300
P        1.53013363       7.51333683       9.70808320       0.00000000 NULL      -0.01896300      -0.02661600       0.01667400
P        2.37098242       0.58996008       7.51333683       0.00000000 NULL      -0.01896400      -0.01667300      -0.02661600
P        0.68928484       9.70808320       2.78470645       0.00000000 NULL      -0.01896300       0.01667400       0.02661600
P        2.22313593       9.71613939       5.58077035       0.00000000 NULL       0.18340400      -0.32417900       0.44692500
P        0.54143835       0.58190390       4.71727294       0.00000000 NULL       0.18340500       0.32417900      -0.44692500
P        1.38228714       5.58077035       0.58190390       0.00000000 NULL       0.18340500       0.44692500       0.32417900
P       -0.29941044       4.71727294       9.71613939       0.00000000 NULL       0.18340400      -0.44692500      -0.32417900
P        3.17238222       8.70987739       0.34105816       0.00000000 NULL      -0.16444100      -0.33744000      -0.26079800
P        1.49068463       1.58816590       9.95698512       0.00000000 NULL      -0.16444000       0.33743900       0.26079800
P        2.33153343       0.34105816       1.58816590       0.00000000 NULL      -0.16444100      -0.26079800       0.33744000
P        0.64983584       9.95698512       8.70987739       0.00000000 NULL      -0.16444000       0.26079800      -0.33743900
12
Lattice="3.371675675191125 0.0 0.0 0.0 10.32385029853173 0.0 0.0 0.0 10.32385029853173" Properties=species:S:1:pos:R:3:initial_magmoms:R:1:castep_labels:S:1:forces:R:3 n_minim_iter=10 energy=-63.717015860701 stress="0.0037704854414159815 -0.0 0.0 -0.0 0.0016405296002334959 0.0 0.0 0.0 0.0016405296002334959" free_energy=-63.717015860701 pbc="T T T"
P        3.21482651       2.81377752       0.71991010       0.00000000 NULL       0.05409900       0.15267200       0.10968000
P        1.52898867       7.51007278       9.60394020       0.00000000 NULL       0.05409700      -0.15267200      -0.10968000
P        2.37190759       0.71991010       7.51007278       0.00000000 NULL       0.05409900       0.10968000      -0.15267200
P        0.68606975       9.60394020       2.81377752       0.00000000 NULL       0.05409700      -0.10968000       0.15267200
P        2.21220207       9.77526971       5.66850113       0.00000000 NULL       0.20794800      -0.09133300       0.00442700
P        0.52636423       0.54858059       4.65534917       0.00000000 NULL       0.20794600       0.09133300      -0.00442700
P        1.36928315       5.66850113       0.54858059       0.00000000 NULL       0.20794600       0.00442700       0.09133300
P       -0.31655469       4.65534917       9.77526971       0.00000000 NULL       0.20794800      -0.00442700      -0.09133300
P        3.20151181       8.66013352       0.19625074       0.00000000 NULL      -0.26204400       0.04114700      -0.14802500
P        1.51567397       1.66371677      10.12759956       0.00000000 NULL      -0.26204600      -0.04114700       0.14802600
P        2.35859289       0.19625074       1.66371677       0.00000000 NULL      -0.26204400      -0.14802600      -0.04114700
P        0.67275505      10.12759956       8.66013352       0.00000000 NULL      -0.26204600       0.14802600       0.04114700
12
Lattice="3.351556048806938 0.0 0.0 0.0 10.332642241610918 0.0 0.0 0.0 10.332642241610918" Properties=species:S:1:pos:R:3:initial_magmoms:R:1:castep_labels:S:1:forces:R:3 n_minim_iter=11 energy=-63.848445995564 stress="0.006347425427767721 0.0 0.0 0.0 0.0065134289105963725 -0.0 0.0 -0.0 0.0065134289105963725" free_energy=-63.848445995564 pbc="T T T"
P        3.19224500       2.86962115       0.83132591       0.00000000 NULL      -0.08983300      -0.06484200      -0.03797600
P        1.51646698       7.46302109       9.50131633       0.00000000 NULL      -0.08983300       0.06484200       0.03797600
P        2.35435599       0.83132591       7.46302109       0.00000000 NULL      -0.08983300      -0.03797600       0.06484200
P        0.67857797       9.50131633       2.86962115       0.00000000 NULL      -0.08983300       0.03797600      -0.06484200
P        2.22957358       9.78670595       5.70371777       0.00000000 NULL       0.16418600       0.11209600      -0.08795800
P        0.55379555       0.54593629       4.62892447       0.00000000 NULL       0.16418700      -0.11209600       0.08795800
P        1.39168457       5.70371777       0.54593629       0.00000000 NULL       0.16418700      -0.08795800      -0.11209600
P       -0.28409346       4.62892447       9.78670595       0.00000000 NULL       0.16418600       0.08795800       0.11209600
P        3.15523304       8.64302194       0.10552743       0.00000000 NULL      -0.07435300       0.06822600      -0.22063100
P        1.47945502       1.68962030      10.22711481       0.00000000 NULL      -0.07435300      -0.06822600       0.22063100
P        2.31734403       0.10552743       1.68962030       0.00000000 NULL      -0.07435300      -0.22063100      -0.06822600
P        0.64156601      10.22711481       8.64302194       0.00000000 NULL      -0.07435300       0.22063100       0.06822600
12
Lattice="3.35073172357063 0.0 0.0 0.0 10.228333873131009 0.0 0.0 0.0 10.228333873131009" Properties=species:S:1:pos:R:3:initial_magmoms:R:1:castep_labels:S:1:forces:R:3 n_minim_iter=12 energy=-63.977529708997 stress="0.0044194029302586915 -0.0 0.0 -0.0 0.0049981512465022745 0.0 0.0 0.0 0.0049981512465022745" free_energy=-63.977529708997 pbc="T T T"
P        3.14909818       2.87791149       0.91565478       0.00000000 NULL       0.02747500      -0.11128700       0.05332500
P        1.47373232       7.35042238       9.31267909       0.00000000 NULL       0.02747300       0.11128700      -0.05332500
P        2.31141525       0.91565478       7.35042238       0.00000000 NULL       0.02747500       0.05332500       0.11128700
P        0.63604938       9.31267909       2.87791149       0.00000000 NULL       0.02747300      -0.05332500      -0.11128700
P        2.31113950       9.69414156       5.66153509       0.00000000 NULL       0.00753100       0.08930800      -0.06118600
P        0.63577364       0.53419231       4.56679878       0.00000000 NULL       0.00752900      -0.08930800       0.06118600
P        1.47345657       5.66153509       0.53419231       0.00000000 NULL       0.00752900      -0.06118600      -0.08930800
P       -0.20190929       4.56679878       9.69414156       0.00000000 NULL       0.00753100       0.06118600       0.08930800
P        3.11470424       8.52501911      -0.00516657       0.00000000 NULL      -0.03500300       0.26360200      -0.12506300
P        1.43933838       1.70331476      10.23350044       0.00000000 NULL      -0.03500500      -0.26360200       0.12506400
P        2.27702131      -0.00516657       1.70331476       0.00000000 NULL      -0.03500300      -0.12506400      -0.26360300
P        0.60165545      10.23350044       8.52501911       0.00000000 NULL      -0.03500500       0.12506400       0.26360200
12
Lattice="3.348556659246294 0.0 0.0 0.0 10.099111272679956 0.0 0.0 0.0 10.099111272679956" Properties=species:S:1:pos:R:3:initial_magmoms:R:1:castep_labels:S:1:forces:R:3 n_minim_iter=13 energy=-64.050697802705 stress="0.005876826373045189 -0.0 0.0 -0.0 0.007929699805928475 0.0 0.0 0.0 0.007929699805928475" free_energy=-64.050697802705 pbc="T T T"
P        3.13139171       2.84561366       1.02312272       0.00000000 NULL       0.08062700      -0.01347100      -0.14264900
P        1.45711338       7.25349762       9.07598856       0.00000000 NULL       0.08062500       0.01347100       0.14264800
P        2.29425254       1.02312272       7.25349762       0.00000000 NULL       0.08062700      -0.14264800       0.01347100
P        0.61997421       9.07598856       2.84561366       0.00000000 NULL       0.08062500       0.14264800      -0.01347100
P        2.34453168       9.57718947       5.61838102       0.00000000 NULL      -0.05006700       0.30074800      -0.05190000
P        0.67025335       0.52192180       4.48073026       0.00000000 NULL      -0.05006900      -0.30074800       0.05190000
P        1.50739252       5.61838102       0.52192180       0.00000000 NULL      -0.05006900      -0.05190000      -0.30074800
P       -0.16688581       4.48073026       9.57718947       0.00000000 NULL      -0.05006700       0.05190000       0.30074800
P        3.09345184       8.41229629      -0.07179537       0.00000000 NULL      -0.03055700       0.31162700      -0.19311500
P        1.41917351       1.68681498      10.17090664       0.00000000 NULL      -0.03055900      -0.31162700       0.19311600
P        2.25631267      -0.07179537       1.68681498       0.00000000 NULL      -0.03055700      -0.19311600      -0.31162800
P        0.58203434      10.17090664       8.41229629       0.00000000 NULL      -0.03055900       0.19311600       0.31162700
12
Lattice="3.376116960648287 0.0 0.0 0.0 9.967755923412945 0.0 0.0 0.0 9.967755923412945" Properties=species:S:1:pos:R:3:initial_magmoms:R:1:castep_labels:S:1:forces:R:3 n_minim_iter=14 energy=-64.147149902937 stress="0.00935821169728225 -0.0 0.0 -0.0 0.0089438281395994 0.0 0.0 0.0 0.0089438281395994" free_energy=-64.147149902937 pbc="T T T"
P        3.14403218       2.83425581       1.14361037       0.00000000 NULL       0.02212700      -0.07182300      -0.18526600
P        1.45597370       7.13350012       8.82414556       0.00000000 NULL       0.02212700       0.07182300       0.18526600
P        2.30000294       1.14361037       7.13350012       0.00000000 NULL       0.02212700      -0.18526600       0.07182300
P        0.61194446       8.82414556       2.83425581       0.00000000 NULL       0.02212700       0.18526600      -0.07182300
P        2.40830114       9.48762572       5.58338057       0.00000000 NULL      -0.12625100       0.29250200      -0.10953700
P        0.72024266       0.48013020       4.38437535       0.00000000 NULL      -0.12625100      -0.29250200       0.10953700
P        1.56427190       5.58338057       0.48013020       0.00000000 NULL      -0.12625100      -0.10953700      -0.29250200
P       -0.12378658       4.38437535       9.48762572       0.00000000 NULL      -0.12625100       0.10953700       0.29250200
P        3.08757120       8.31769370      -0.22496822       0.00000000 NULL       0.10412400       0.34808000      -0.15813200
P        1.39951272       1.65006223      10.19272414       0.00000000 NULL       0.10412400      -0.34808100       0.15813200
P        2.24354196      -0.22496822       1.65006223       0.00000000 NULL       0.10412400      -0.15813200      -0.34808100
P        0.55548348      10.19272414       8.31769370       0.00000000 NULL       0.10412400       0.15813200       0.34808000
12
Lattice="3.3677017919076118 0.0 0.0 0.0 9.621768572679203 0.0 0.0 0.0 9.621768572679203" Properties=species:S:1:pos:R:3:initial_magmoms:R:1:castep_labels:S:1:forces:R:3 n_minim_iter=15 energy=-64.365026760294 stress="0.0018145685483265954 -0.0 0.0 -0.0 0.004667252231434868 0.0 0.0 0.0 0.004667252231434868" free_energy=-64.365026760294 pbc="T T T"
P        3.12609770       2.76138373       1.29698084       0.00000000 NULL      -0.02424000      -0.07304300      -0.19049000
P        1.44224680       6.86038484       8.32478774       0.00000000 NULL      -0.02424100       0.07304200       0.19049000
P        2.28417225       1.29698084       6.86038484       0.00000000 NULL      -0.02424000      -0.19049000       0.07304300
P        0.60032136       8.32478774       2.76138373       0.00000000 NULL      -0.02424100       0.19049000      -0.07304200
P        2.42791096       9.18455463       5.42167656       0.00000000 NULL      -0.15637000       0.21357800       0.19501200
P        0.74406006       0.43721394       4.20009201       0.00000000 NULL      -0.15637100      -0.21357800      -0.19501200
P        1.58598551       5.42167656       0.43721394       0.00000000 NULL      -0.15637100       0.19501200      -0.21357800
P       -0.09786539       4.20009201       9.18455463       0.00000000 NULL      -0.15637000      -0.19501200       0.21357800
P        3.06435795       8.09608499      -0.43576234       0.00000000 NULL       0.18061100       0.19471100      -0.11616800
P        1.38050706       1.52568358      10.05753092       0.00000000 NULL       0.18061000      -0.19471100       0.11616800
P        2.22243250      -0.43576234       1.52568358       0.00000000 NULL       0.18061100      -0.11616800      -0.19471200
P        0.53858161      10.05753092       8.09608499       0.00000000 NULL       0.18061000       0.11616800       0.19471100
12
Lattice="3.374723510137355 0.0 0.0 0.0 9.498010124280496 0.0 0.0 0.0 9.498010124280496" Properties=species:S:1:pos:R:3:initial_magmoms:R:1:castep_labels:S:1:forces:R:3 n_minim_iter=16 energy=-64.459151126501 stress="0.002871161456044585 -0.0 0.0 -0.0 0.005334526670505901 0.0 0.0 0.0 0.005334526670505901" free_energy=-64.459151126501 pbc="T T T"
P        3.13516545       2.73057516       1.39071851       0.00000000 NULL      -0.06806200      -0.06799000      -0.19595100
P        1.44780370       6.76743497       8.10729161       0.00000000 NULL      -0.06806500       0.06799000       0.19595100
P        2.29148457       1.39071851       6.76743497       0.00000000 NULL      -0.06806200      -0.19595100       0.06799000
P        0.60412282       8.10729161       2.73057516       0.00000000 NULL      -0.06806500       0.19595000      -0.06799000
P        2.41889237       9.10629536       5.39327635       0.00000000 NULL      -0.12410400       0.19741600       0.01001200
P        0.73153062       0.39171477       4.10473378       0.00000000 NULL      -0.12410700      -0.19741700      -0.01001200
P        1.57521150       5.39327635       0.39171477       0.00000000 NULL      -0.12410700       0.01001200      -0.19741700
P       -0.11215026       4.10473378       9.10629536       0.00000000 NULL      -0.12410400      -0.01001200       0.19741600
P        3.08227678       8.03092677      -0.57541984       0.00000000 NULL       0.19217100       0.12439500      -0.06463500
P        1.39491502       1.46708336      10.07342997       0.00000000 NULL       0.19216700      -0.12439500       0.06463600
P        2.23859590      -0.57541984       1.46708336       0.00000000 NULL       0.19217000      -0.06463500      -0.12439600
P        0.55123415      10.07342997       8.03092677       0.00000000 NULL       0.19216700       0.06463600       0.12439500
12
Lattice="3.3899275123320183 0.0 0.0 0.0 9.396693210064779 0.0 0.0 0.0 9.396693210064779" Properties=species:S:1:pos:R:3:initial_magmoms:R:1:castep_labels:S:1:forces:R:3 n_minim_iter=17 energy=-64.527161829859 stress="0.0014044011102829737 -0.0 0.0 -0.0 -0.00026439637430785866 0.0 0.0 0.0 -0.00026439637430785866" free_energy=-64.527161829859 pbc="T T T"
P        3.15602327       2.68816010       1.39711852       0.00000000 NULL      -0.03932300      -0.03644100      -0.01340900
P        1.46105951       6.70853311       7.99957469       0.00000000 NULL      -0.03932600       0.03644100       0.01340900
P        2.30854139       1.39711852       6.70853311       0.00000000 NULL      -0.03932300      -0.01340900       0.03644100
P        0.61357763       7.99957469       2.68816010       0.00000000 NULL      -0.03932600       0.01340900      -0.03644100
P        2.39647164       9.02825349       5.34560819       0.00000000 NULL      -0.07295300       0.01916700      -0.00771800
P        0.70150788       0.36843972       4.05108502       0.00000000 NULL      -0.07295600      -0.01916700       0.00771800
P        1.54898976       5.34560819       0.36843972       0.00000000 NULL      -0.07295600      -0.00771800      -0.01916700
P       -0.14597400       4.05108502       9.02825349       0.00000000 NULL      -0.07295300       0.00771800       0.01916700
P        3.12274736       7.98396313      -0.62739287       0.00000000 NULL       0.11228100      -0.00912900      -0.06621300
P        1.42778360       1.41273008      10.02408608       0.00000000 NULL       0.11227700       0.00912900       0.06621300
P        2.27526548      -0.62739287       1.41273008       0.00000000 NULL       0.11228000      -0.06621300       0.00912900
P        0.58030172      10.02408608       7.98396313       0.00000000 NULL       0.11227700       0.06621300      -0.00912900
12
Lattice="3.3808288072883323 0.0 0.0 0.0 9.36180101291118 0.0 0.0 0.0 9.36180101291118" Properties=species:S:1:pos:R:3:initial_magmoms:R:1:castep_labels:S:1:forces:R:3 n_minim_iter=18 energy=-64.552620383451 stress="0.00010678111693479227 -0.0 0.0 -0.0 0.0003250681789873322 0.0 0.0 0.0 0.0003250681789873322" free_energy=-64.552620383451 pbc="T T T"
P        3.15506016       2.68423111       1.43381385       0.00000000 NULL      -0.02328500      -0.01578900      -0.00965400
P        1.46464576       6.67756991       7.92798717       0.00000000 NULL      -0.02328600       0.01578900       0.00965400
P        2.30985296       1.43381385       6.67756991       0.00000000 NULL      -0.02328500      -0.00965400       0.01578900
P        0.61943856       7.92798717       2.68423111       0.00000000 NULL      -0.02328600       0.00965400      -0.01578900
P        2.35493246       9.01040750       5.33575170       0.00000000 NULL      -0.02088600      -0.01518300      -0.00942800
P        0.66451806       0.35139352       4.02604931       0.00000000 NULL      -0.02088700       0.01518300       0.00942800
P        1.50972526       5.33575170       0.35139352       0.00000000 NULL      -0.02088700      -0.00942800       0.01518300
P       -0.18068915       4.02604931       9.01040750       0.00000000 NULL      -0.02088600       0.00942800      -0.01518300
P        3.14196423       7.96164735      -0.69382006       0.00000000 NULL       0.04417300       0.06136300      -0.02199800
P        1.45154983       1.40015366      10.05562108       0.00000000 NULL       0.04417100      -0.06136300       0.02199800
P        2.29675703      -0.69382006       1.40015366       0.00000000 NULL       0.04417300      -0.02199800      -0.06136300
P        0.60634262      10.05562108       7.96164735       0.00000000 NULL       0.04417100       0.02199800       0.06136300
12
Lattice="3.3855437747337382 0.0 0.0 0.0 9.259513969822432 0.0 0.0 0.0 9.259513969822432" Properties=species:S:1:pos:R:3:initial_magmoms:R:1:castep_labels:S:1:forces:R:3 n_minim_iter=19 energy=-64.565081158785 stress="0.0011682154403022693 -0.0 0.0 -0.0 0.001053013068365649 0.0 0.0 0.0 0.001053013068365649" free_energy=-64.565081158785 pbc="T T T"
P        3.16302708       2.65857581       1.47772992       0.00000000 NULL      -0.01174300      -0.00795300       0.01604500
P        1.47025519       6.60093816       7.78178405       0.00000000 NULL      -0.01174400       0.00795300      -0.01604500
P        2.31664113       1.47772992       6.60093816       0.00000000 NULL      -0.01174300       0.01604500       0.00795300
P        0.62386925       7.78178405       2.65857581       0.00000000 NULL      -0.01174400      -0.01604500      -0.00795300
P        2.32972879       8.92639643       5.29060735       0.00000000 NULL       0.00865900       0.00458600      -0.05040700
P        0.63695690       0.33311754       3.96890662       0.00000000 NULL       0.00865700      -0.00458600       0.05040700
P        1.48334285       5.29060735       0.33311754       0.00000000 NULL       0.00865700      -0.05040700      -0.00458600
P       -0.20942904       3.96890662       8.92639643       0.00000000 NULL       0.00865900       0.05040700       0.00458600
P        3.17126602       7.91063526      -0.78761770       0.00000000 NULL       0.00308700       0.00975200       0.01225800
P        1.47849414       1.34887871      10.04713167       0.00000000 NULL       0.00308500      -0.00975300      -0.01225800
P        2.32488008      -0.78761770       1.34887871       0.00000000 NULL       0.00308700       0.01225800      -0.00975200
P        0.63210819      10.04713167       7.91063526       0.00000000 NULL       0.00308500      -0.01225800       0.00975200
12
Lattice="3.384705303966556 0.0 0.0 0.0 9.21405648164194 0.0 0.0 0.0 9.21405648164194" Properties=species:S:1:pos:R:3:initial_magmoms:R:1:castep_labels:S:1:forces:R:3 n_minim_iter=20 energy=-64.566862831171 stress="0.0005333078365847143 0.0 -0.0 0.0 0.0005151423102749445 -0.0 -0.0 -0.0 0.0005151423102749445" free_energy=-64.566862831171 pbc="T T T"
P        3.16154526       2.64682130       1.49244399       0.00000000 NULL      -0.00025900       0.01450400       0.00778500
P        1.46919261       6.56723518       7.72161249       0.00000000 NULL      -0.00025700      -0.01450400      -0.00778500
P        2.31536893       1.49244399       6.56723518       0.00000000 NULL      -0.00025900       0.00778500      -0.01450400
P        0.62301628       7.72161249       2.64682130       0.00000000 NULL      -0.00025700      -0.00778500       0.01450400
P        2.32581716       8.88423807       5.26738540       0.00000000 NULL       0.00867900       0.02633300      -0.04046900
P        0.63346451       0.32981841       3.94667108       0.00000000 NULL       0.00868100      -0.02633300       0.04046900
P        1.47964083       5.26738540       0.32981841       0.00000000 NULL       0.00868100      -0.04046900      -0.02633300
P       -0.21271182       3.94667108       8.88423807       0.00000000 NULL       0.00867900       0.04046900       0.02633300
P        3.17451361       7.87840170      -0.80670300       0.00000000 NULL      -0.00842200       0.01060600       0.01848600
P        1.48216096       1.33565478      10.02075948       0.00000000 NULL      -0.00842000      -0.01060500      -0.01848600
P        2.32833728      -0.80670300       1.33565478       0.00000000 NULL      -0.00842200       0.01848600      -0.01060600
P        0.63598463      10.02075948       7.87840170       0.00000000 NULL      -0.00842000      -0.01848600       0.01060600
12
Lattice="3.3834523610639904 0.0 0.0 0.0 9.204631897628225 0.0 0.0 0.0 9.204631897628225" Properties=species:S:1:pos:R:3:initial_magmoms:R:1:castep_labels:S:1:forces:R:3 n_minim_iter=21 energy=-64.567511158401 stress="-0.0003119682169958773 0.0 -0.0 0.0 -0.00012446635337596895 -0.0 -0.0 -0.0 -0.00012446635337596895" free_energy=-64.567511158401 pbc="T T T"
P        3.15931353       2.64487564       1.49149562       0.00000000 NULL       0.00044400       0.00982600       0.00434800
P        1.46758735       6.55975626       7.71313627       0.00000000 NULL       0.00044600      -0.00982600      -0.00434800
P        2.31345044       1.49149562       6.55975626       0.00000000 NULL       0.00044400       0.00434800      -0.00982600
P        0.62172426       7.71313627       2.64487564       0.00000000 NULL       0.00044600      -0.00434800       0.00982600
P        2.32905299       8.87351826       5.25941952       0.00000000 NULL       0.00184700       0.02197700       0.00170500
P        0.63732681       0.33111363       3.94521238       0.00000000 NULL       0.00184900      -0.02197700      -0.00170500
P        1.48318990       5.25941952       0.33111363       0.00000000 NULL       0.00184900       0.00170500      -0.02197700
P       -0.20853628       3.94521238       8.87351826       0.00000000 NULL       0.00184700      -0.00170500       0.02197700
P        3.17030405       7.86909298      -0.79835343       0.00000000 NULL      -0.00229400      -0.00264900       0.00116500
P        1.47857787       1.33553892      10.00298533       0.00000000 NULL      -0.00229200       0.00265000      -0.00116500
P        2.32444096      -0.79835343       1.33553892       0.00000000 NULL      -0.00229400       0.00116500       0.00265000
P        0.63271478      10.00298533       7.86909298       0.00000000 NULL      -0.00229200      -0.00116600      -0.00265000
