9
Lattice="5.15594 0.0 0.0 0.0 6.693979999999998 -5.859764940880761e-16 0.0 -3.3469899999999986 5.7971567324249555" Properties=species:S:1:pos:R:3:initial_magmoms:R:1:castep_labels:S:1 n_minim_iter=1 pbc="T T T"
P        0.23395490       0.09406615       3.27733618       0.00000000 NULL
P        1.95260157      -0.55576669       4.07702497       0.00000000 NULL
P        3.67124823       0.46170054       4.23995232       0.00000000 NULL
P        0.24717989      -0.87021171       1.51597794       0.00000000 NULL
P        1.96582656      -1.59900874       5.79279321       0.00000000 NULL
P        3.68447322       2.46922045       4.28554232       0.00000000 NULL
P        0.00347613       1.34314441       0.09136551       0.00000000 NULL
P        1.72212280       2.75454265       4.58827680       0.00000000 NULL
P        3.44076946       5.94328295       1.11751443       0.00000000 NULL
9
Lattice="5.168886178589878 0.0 0.0 0.0 6.699101044947809 -4.766377423766744e-16 0.0 -3.349550522473904 5.801591687443682" Properties=species:S:1:pos:R:3:initial_magmoms:R:1:castep_labels:S:1 n_minim_iter=2 pbc="T T T"
P        0.23459258       0.09430526       3.27977835       0.00000000 NULL
P        1.95755464      -0.55633178       4.08003176       0.00000000 NULL
P        3.68051670       0.46202652       4.24337327       0.00000000 NULL
P        0.24798100      -0.87094478       1.51688540       0.00000000 NULL
P        1.97094305      -1.60041684       5.79740929       0.00000000 NULL
P        3.69390511       2.47136162       4.28888869       0.00000000 NULL
P        0.00325416       1.34400818       0.09154026       0.00000000 NULL
P        1.72621622       2.75682263       4.59187634       0.00000000 NULL
P        3.44917828       5.94782077       1.11817510       0.00000000 NULL
9
Lattice="5.469909521583294 0.0 0.0 0.0 6.815729706709993 1.3054212983288508e-15 0.0 -3.407864853354998 5.902595071339117" Properties=species:S:1:pos:R:3:initial_magmoms:R:1:castep_labels:S:1 n_minim_iter=3 pbc="T T T"
P        0.24949453       0.09990611       3.33542289       0.00000000 NULL
P        2.07279770      -0.56925696       4.14836240       0.00000000 NULL
P        3.89610088       0.46935085       4.32140486       0.00000000 NULL
P        0.26669277      -0.88761973       1.53726360       0.00000000 NULL
P        2.08999595      -1.63274566       5.90266451       0.00000000 NULL
P        3.91329912       2.52036540       4.36526204       0.00000000 NULL
P       -0.00206614       1.36350238       0.09562888       0.00000000 NULL
P        1.82123704       2.80893070       4.67395294       0.00000000 NULL
P        3.64454021       6.05116148       1.13301326       0.00000000 NULL
9
Lattice="5.558123576836079 0.0 0.0 0.0 6.851508407680718 -1.1995065612451773e-18 0.0 -3.425754203840359 5.93358033529417" Properties=species:S:1:pos:R:3:initial_magmoms:R:1:castep_labels:S:1 n_minim_iter=4 pbc="T T T"
P        0.25490936       0.10416990       3.35332901       0.00000000 NULL
P        2.10761722      -0.57377104       4.16670206       0.00000000 NULL
P        3.96032507       0.46960115       4.34712961       0.00000000 NULL
P        0.27055097      -0.89171359       1.53841309       0.00000000 NULL
P        2.12325883      -1.64759259       5.93662041       0.00000000 NULL
P        3.97596669       2.53930618       4.39212717       0.00000000 NULL
P       -0.00304785       1.36616244       0.09897661       0.00000000 NULL
P        1.84966001       2.82838924       4.70096066       0.00000000 NULL
P        3.70236787       6.08271094       1.13364307       0.00000000 NULL
9
Lattice="5.595374779739134 0.0 0.0 0.0 6.8588463852321695 6.690528211541306e-16 0.0 -3.429423192616085 5.939935210266127" Properties=species:S:1:pos:R:3:initial_magmoms:R:1:castep_labels:S:1 n_minim_iter=5 pbc="T T T"
P        0.25845605       0.10879803       3.35765884       0.00000000 NULL
P        2.12358098      -0.57600436       4.16688394       0.00000000 NULL
P        3.98870590       0.46720633       4.35532765       0.00000000 NULL
P        0.26994272      -0.89083101       1.53128356       0.00000000 NULL
P        2.13506764      -1.65787722       5.94577572       0.00000000 NULL
P        4.00019257       2.54870824       4.40281114       0.00000000 NULL
P       -0.00248502       1.36158707       0.10291793       0.00000000 NULL
P        1.86263991       2.83775920       4.70930726       0.00000000 NULL
P        3.72776483       6.08892332       1.12771003       0.00000000 NULL
9
Lattice="5.6093063811119634 0.0 0.0 0.0 6.842477586956117 7.804005274208592e-16 0.0 -3.421238793478059 5.925759415129643" Properties=species:S:1:pos:R:3:initial_magmoms:R:1:castep_labels:S:1 n_minim_iter=6 pbc="T T T"
P        0.26120081       0.11341887       3.35031535       0.00000000 NULL
P        2.13096960      -0.57649003       4.15237812       0.00000000 NULL
P        4.00073839       0.46307116       4.34882537       0.00000000 NULL
P        0.26723389      -0.88590396       1.51794673       0.00000000 NULL
P        2.13700268      -1.66370638       5.93400139       0.00000000 NULL
P        4.00677148       2.54961035       4.39957071       0.00000000 NULL
P       -0.00121151       1.35128336       0.10712782       0.00000000 NULL
P        1.86855729       2.83837252       4.70194979       0.00000000 NULL
P        3.73832608       6.07406050       1.11668181       0.00000000 NULL
9
Lattice="5.627764609260158 0.0 0.0 0.0 6.813074251918821 1.4368640938862082e-15 0.0 -3.4065371259594115 5.900295380031359" Properties=species:S:1:pos:R:3:initial_magmoms:R:1:castep_labels:S:1 n_minim_iter=7 pbc="T T T"
P        0.26449680       0.11844172       3.33653865       0.00000000 NULL
P        2.14041833      -0.57623075       4.12945252       0.00000000 NULL
P        4.01633987       0.45778904       4.33459960       0.00000000 NULL
P        0.26438437      -0.87857756       1.50046756       0.00000000 NULL
P        2.14030591      -1.66780532       5.91093210       0.00000000 NULL
P        4.01622745       2.54638289       4.38919112       0.00000000 NULL
P        0.00007692       1.33722690       0.11184390       0.00000000 NULL
P        1.87599846       2.83478334       4.68630096       0.00000000 NULL
P        3.75191999       6.04760114       1.10215052       0.00000000 NULL
9
Lattice="5.679515974340251 0.0 0.0 0.0 6.731752568043373 6.196005495011914e-16 0.0 -3.3658762840216867 5.829868735916694" Properties=species:S:1:pos:R:3:initial_magmoms:R:1:castep_labels:S:1 n_minim_iter=8 pbc="T T T"
P        0.27280146       0.12997876       3.29841191       0.00000000 NULL
P        2.16597345      -0.57435716       4.06809788       0.00000000 NULL
P        4.05914544       0.44437841       4.29322769       0.00000000 NULL
P        0.25836859      -0.85957495       1.45682592       0.00000000 NULL
P        2.15154058      -1.67444055       5.84586952       0.00000000 NULL
P        4.04471258       2.53401551       4.35704203       0.00000000 NULL
P        0.00265220       1.30169026       0.12275605       0.00000000 NULL
P        1.89582419       2.82134101       4.64119389       0.00000000 NULL
P        3.78899618       5.97459759       1.06591881       0.00000000 NULL
9
Lattice="6.225403509966814 0.0 0.0 0.0 6.145513904988775 1.659458926977455e-15 0.0 -3.072756952494388 5.322171161030785" Properties=species:S:1:pos:R:3:initial_magmoms:R:1:castep_labels:S:1 n_minim_iter=9 pbc="T T T"
P        0.35275740       0.21866877       3.03491342       0.00000000 NULL
P        2.42789191      -0.55377922       3.61534175       0.00000000 NULL
P        4.50302641       0.33511046       3.99408716       0.00000000 NULL
P        0.21419686      -0.72484591       1.13533535       0.00000000 NULL
P        2.28933136      -1.72710474       5.38223846       0.00000000 NULL
P        4.36446586       2.45195066       4.12676852       0.00000000 NULL
P        0.01817639       1.04453116       0.20312750       0.00000000 NULL
P        2.09331089       2.72640495       4.31601690       0.00000000 NULL
P        4.16844539       5.44733476       0.80302677       0.00000000 NULL
9
Lattice="6.268865096376801 0.0 0.0 0.0 7.506176977686956 -2.263004134746941e-16 0.0 -3.7530884888434763 6.500539947978804" Properties=species:S:1:pos:R:3:initial_magmoms:R:1:castep_labels:S:1 n_minim_iter=10 pbc="T T T"
P        0.35904716       0.27699202       3.71841811       0.00000000 NULL
P        2.44866886      -0.67133996       4.40144878       0.00000000 NULL
P        4.53829056       0.39434794       4.88121302       0.00000000 NULL
P        0.21309653      -0.94173396       1.40675108       0.00000000 NULL
P        2.30271823      -2.06393933       6.61272995       0.00000000 NULL
P        4.39233993       3.00567330       4.98159887       0.00000000 NULL
P        0.01707193       1.32637919       0.22915016       0.00000000 NULL
P        2.10669363       3.28834875       5.23728680       0.00000000 NULL
P        4.19631532       6.64453753       1.03410300       0.00000000 NULL
9
Lattice="5.6617751718504 0.0 0.0 0.0 6.799799818523893 8.151116970566346e-16 0.0 -3.3998999092619457 5.8887993834905075" Properties=species:S:1:pos:R:3:initial_magmoms:R:1:castep_labels:S:1 n_minim_iter=11 pbc="T T T"
P        0.32332980       0.24532065       3.36172396       0.00000000 NULL
P        2.21058819      -0.61122188       3.99548349       0.00000000 NULL
P        4.09784658       0.36590124       4.42039132       0.00000000 NULL
P        0.18057592      -0.83552424       1.27615732       0.00000000 NULL
P        2.06783431      -1.87695313       5.97430594       0.00000000 NULL
P        3.95509271       2.71247737       4.52713551       0.00000000 NULL
P        0.02824903       1.19266286       0.21255176       0.00000000 NULL
P        1.91550742       2.98764371       4.74964717       0.00000000 NULL
P        3.80276581       6.01939316       0.92660045       0.00000000 NULL
9
Lattice="5.978480891777989 0.0 0.0 0.0 6.710834875644471 1.2329406915020264e-15 0.0 -3.355417437822235 5.811753482910696" Properties=species:S:1:pos:R:3:initial_magmoms:R:1:castep_labels:S:1 n_minim_iter=12 pbc="T T T"
P        0.34199517       0.24297016       3.31151034       0.00000000 NULL
P        2.33482213      -0.60905044       3.94557999       0.00000000 NULL
P        4.32764910       0.36608028       4.36641664       0.00000000 NULL
P        0.20002316      -0.82145511       1.26386682       0.00000000 NULL
P        2.19285012      -1.85014911       5.89122108       0.00000000 NULL
P        4.18567709       2.67160423       4.46841908       0.00000000 NULL
P        0.01990385       1.17589899       0.21186217       0.00000000 NULL
P        2.01273081       2.95094596       4.68746400       0.00000000 NULL
P        4.00555777       5.93940736       0.91242732       0.00000000 NULL
9
Lattice="5.94923336154345 0.0 0.0 0.0 6.604319848042438 4.819980254783112e-16 0.0 -3.302159924021218 5.719508763122535" Properties=species:S:1:pos:R:3:initial_magmoms:R:1:castep_labels:S:1 n_minim_iter=13 pbc="T T T"
P        0.34060539       0.23905289       3.25620451       0.00000000 NULL
P        2.32368317      -0.60173054       3.88438064       0.00000000 NULL
P        4.30676096       0.36267766       4.29843238       0.00000000 NULL
P        0.19907850      -0.80601626       1.24604921       0.00000000 NULL
P        2.18215629      -1.82004152       5.79451472       0.00000000 NULL
P        4.16523408       2.62605778       4.39845360       0.00000000 NULL
P        0.01948929       1.15665510       0.20938582       0.00000000 NULL
P        2.00256708       2.90516581       4.61312315       0.00000000 NULL
P        3.98564486       5.84465886       0.89699979       0.00000000 NULL
9
Lattice="5.983682394568919 0.0 0.0 0.0 6.558011522423772 4.564830193553343e-16 0.0 -3.279005761211885 5.6794045767300485" Properties=species:S:1:pos:R:3:initial_magmoms:R:1:castep_labels:S:1 n_minim_iter=14 pbc="T T T"
P        0.34312917       0.23805557       3.23084570       0.00000000 NULL
P        2.33768997      -0.60003909       3.85781956       0.00000000 NULL
P        4.33225077       0.36198353       4.27014390       0.00000000 NULL
P        0.20137885      -0.79979304       1.24017357       0.00000000 NULL
P        2.19593965      -1.80508742       5.75195889       0.00000000 NULL
P        4.19050045       2.60488047       4.36667670       0.00000000 NULL
P        0.01790305       1.14945033       0.20849441       0.00000000 NULL
P        2.01246385       2.88484205       4.57970419       0.00000000 NULL
P        4.00702464       5.80272490       0.89120598       0.00000000 NULL
