27
Lattice="8.700579999999997 -1.5888901852880441e-15 0.0 -4.350289999999996 7.534923307658809 0.0 0.0 0.0 9.278109999999998" Properties=species:S:1:pos:R:3:initial_magmoms:R:1:castep_labels:S:1 n_minim_iter=1 pbc="T T T"
P        1.49954888       4.51424564       3.54105470       0.00000000 NULL
P       -0.30893584       6.57644791       0.44835137       0.00000000 NULL
P       -1.19061303       3.97915307       6.63375803       0.00000000 NULL
P       -2.85192658       5.76005253       6.31262842       0.00000000 NULL
P        0.78790148       2.18505617       3.21992509       0.00000000 NULL
P        2.06402511       7.12473791       0.12722175       0.00000000 NULL
P        4.18725288       3.54812531       2.37948172       0.00000000 NULL
P        3.53418691       1.85220471       8.56488839       0.00000000 NULL
P        5.32943022       2.13459329       5.47218505       0.00000000 NULL
P        4.70975490       2.03715166       0.93127452       0.00000000 NULL
P        4.58147746       3.06019156       7.11668119       0.00000000 NULL
P        3.75963764       2.43758009       4.02397785       0.00000000 NULL
P        1.48522555       1.97900390       8.47495876       0.00000000 NULL
P        6.24409958       0.29674110       5.38225543       0.00000000 NULL
P        5.32154488       5.25917830       2.28955209       0.00000000 NULL
P        4.36732530       7.03469557       2.11532743       0.00000000 NULL
P        0.42469228       0.26486687       8.30073410       0.00000000 NULL
P        8.25885242       0.23536087       5.20803076       0.00000000 NULL
P        0.28001033       6.87072057       7.59268843       0.00000000 NULL
P       -1.73993372       4.34205908       4.49998510       0.00000000 NULL
P        1.45992339       3.85706697       1.40728176       0.00000000 NULL
P        6.71567318       1.88241372       2.07568021       0.00000000 NULL
P        3.71252531       4.87473672       8.26108688       0.00000000 NULL
P        2.62267152       0.77777287       5.16838354       0.00000000 NULL
P        2.74897522       2.23908384       1.88554947       0.00000000 NULL
P        5.38698891       1.26114045       8.07095614       0.00000000 NULL
P        4.91490588       4.03469901       4.97825280       0.00000000 NULL
27
Lattice="8.715442456118527 -6.273549826359934e-16 0.0 -4.357721228059262 7.547794572220087 0.0 0.0 0.0 9.293313743986452" Properties=species:S:1:pos:R:3:initial_magmoms:R:1:castep_labels:S:1 n_minim_iter=2 pbc="T T T"
P        1.50208378       4.52181858       3.54681871       0.00000000 NULL
P       -0.30933042       6.58772799       0.44904746       0.00000000 NULL
P       -1.19275335       3.98604258       6.64458996       0.00000000 NULL
P       -2.85667841       5.76973981       6.32297210       0.00000000 NULL
P        0.78931919       2.18896859       3.22520086       0.00000000 NULL
P        2.06735923       7.13688075       0.12742961       0.00000000 NULL
P        4.19448846       3.55447997       2.38326738       0.00000000 NULL
P        3.53992827       1.85529358       8.57880988       0.00000000 NULL
P        5.33874695       2.13802102       5.48103863       0.00000000 NULL
P        4.71816284       2.04054461       0.93298315       0.00000000 NULL
P        4.58919757       3.06577657       7.12852565       0.00000000 NULL
P        3.76580328       2.44147339       4.03075440       0.00000000 NULL
P        1.48755306       1.98252253       8.48884604       0.00000000 NULL
P        6.25475105       0.29699747       5.39107479       0.00000000 NULL
P        5.33085958       5.26827457       2.29330355       0.00000000 NULL
P        4.37470553       7.04677850       2.11879790       0.00000000 NULL
P        0.42540050       0.26521688       8.31434039       0.00000000 NULL
P        8.27305766       0.23579920       5.21656914       0.00000000 NULL
P        0.28051097       6.88231801       7.60517684       0.00000000 NULL
P       -1.74279649       4.34956519       4.50740559       0.00000000 NULL
P        1.46228553       3.86370594       1.40963434       0.00000000 NULL
P        6.72712079       1.88559253       2.07900760       0.00000000 NULL
P        3.71891103       4.88306123       8.27455010       0.00000000 NULL
P        2.62713187       0.77914081       5.17677885       0.00000000 NULL
P        2.75341513       2.24257706       1.88863309       0.00000000 NULL
P        5.39660619       1.26323892       8.08417559       0.00000000 NULL
P        4.92314237       4.04197860       4.98640434       0.00000000 NULL
27
Lattice="8.894746472649869 8.152256107663912e-16 0.0 -4.447373236324934 7.703076405536813 0.0 0.0 0.0 9.478082218014984" Properties=species:S:1:pos:R:3:initial_magmoms:R:1:castep_labels:S:1 n_minim_iter=3 pbc="T T T"
P        1.53261621       4.61296428       3.61676961       0.00000000 NULL
P       -0.31387912       6.72387884       0.45740887       0.00000000 NULL
P       -1.21873709       4.06930970       6.77613035       0.00000000 NULL
P       -2.91384471       5.88637135       6.44864307       0.00000000 NULL
P        0.80654847       2.23642719       3.28928233       0.00000000 NULL
P        2.10729625       7.28335427       0.12992159       0.00000000 NULL
P        4.28183427       3.63139387       2.42915963       0.00000000 NULL
P        3.60895000       1.89248031       8.74788111       0.00000000 NULL
P        5.45133545       2.17920222       5.58852037       0.00000000 NULL
P        4.81995071       2.08141759       0.95391945       0.00000000 NULL
P        4.68221062       3.13349096       7.27264093       0.00000000 NULL
P        3.83995839       2.48816785       4.11328019       0.00000000 NULL
P        1.51540554       2.02507387       8.65761963       0.00000000 NULL
P        6.38327829       0.29984276       5.49825889       0.00000000 NULL
P        5.44343589       5.37815978       2.33889815       0.00000000 NULL
P        4.46367504       7.19255372       2.16098027       0.00000000 NULL
P        0.43397472       0.26937912       8.47970175       0.00000000 NULL
P        8.44446995       0.24114357       5.32034101       0.00000000 NULL
P        0.28660833       7.02213392       7.75706864       0.00000000 NULL
P       -1.77727729       4.44021954       4.59770790       0.00000000 NULL
P        1.49066897       3.94379935       1.43834717       0.00000000 NULL
P        6.86517313       1.92389809       2.11936155       0.00000000 NULL
P        3.79601529       4.98346528       8.43808302       0.00000000 NULL
P        2.68093130       0.79571303       5.27872229       0.00000000 NULL
P        2.80671101       2.28443149       1.92613324       0.00000000 NULL
P        5.51301526       1.28846729       8.24485472       0.00000000 NULL
P        5.02239344       4.13017762       5.08549398       0.00000000 NULL
27
Lattice="8.91923484680094 1.0198065056363616e-15 0.0 -4.459617423400469 7.7242839596490205 0.0 0.0 0.0 9.50372209768023" Properties=species:S:1:pos:R:3:initial_magmoms:R:1:castep_labels:S:1 n_minim_iter=4 pbc="T T T"
P        1.53624728       4.62296910       3.62516239       0.00000000 NULL
P       -0.31211490       6.74322858       0.45725502       0.00000000 NULL
P       -1.22413238       4.08237024       6.79306976       0.00000000 NULL
P       -2.91972575       5.89947122       6.46559134       0.00000000 NULL
P        0.81038836       2.24599168       3.29768397       0.00000000 NULL
P        2.10933740       7.30310503       0.12977661       0.00000000 NULL
P        4.29430549       3.64444002       2.43412804       0.00000000 NULL
P        3.61590447       1.89675764       8.76994277       0.00000000 NULL
P        5.46864232       2.18308630       5.60203541       0.00000000 NULL
P        4.83762249       2.08645382       0.95892530       0.00000000 NULL
P        4.69350159       3.14627706       7.29474004       0.00000000 NULL
P        3.84772820       2.49155308       4.12683267       0.00000000 NULL
P        1.51677405       2.03188033       8.68104673       0.00000000 NULL
P        6.40118784       0.29762469       5.51313937       0.00000000 NULL
P        5.46089038       5.39477894       2.34523200       0.00000000 NULL
P        4.47524359       7.21232919       2.16694287       0.00000000 NULL
P        0.43555276       0.26951004       8.50275761       0.00000000 NULL
P        8.46805593       0.24244473       5.33485024       0.00000000 NULL
P        0.28809174       7.04030023       7.77981923       0.00000000 NULL
P       -1.78150730       4.45362860       4.61191187       0.00000000 NULL
P        1.49341556       3.95463908       1.44400450       0.00000000 NULL
P        6.88327696       1.92867295       2.12396977       0.00000000 NULL
P        3.80731659       4.99675623       8.45978450       0.00000000 NULL
P        2.68825872       0.79885477       5.29187713       0.00000000 NULL
P        2.81098692       2.28711992       1.93164417       0.00000000 NULL
P        5.53303744       1.29082612       8.26745891       0.00000000 NULL
P        5.03482792       4.14633792       5.09955154       0.00000000 NULL
27
Lattice="8.921090499419874 5.980103058254472e-16 0.0 -4.460545249709936 7.725891001957616 0.0 0.0 0.0 9.50257951428188" Properties=species:S:1:pos:R:3:initial_magmoms:R:1:castep_labels:S:1 n_minim_iter=5 pbc="T T T"
P        1.53568113       4.61990199       3.62260738       0.00000000 NULL
P       -0.30824780       6.74587888       0.45508087       0.00000000 NULL
P       -1.22743333       4.08600114       6.79013388       0.00000000 NULL
P       -2.91710543       5.89600133       6.46400658       0.00000000 NULL
P        0.81301103       2.25160292       3.29648008       0.00000000 NULL
P        2.10409441       7.30417775       0.12895357       0.00000000 NULL
P        4.29595237       3.64922643       2.43155934       0.00000000 NULL
P        3.61279153       1.89579067       8.76661235       0.00000000 NULL
P        5.47289186       2.18087391       5.59908585       0.00000000 NULL
P        4.84477759       2.08598032       0.96218278       0.00000000 NULL
P        4.69218975       3.15271031       7.29723579       0.00000000 NULL
P        3.84466841       2.48720037       4.12970929       0.00000000 NULL
P        1.51304670       2.03397591       8.68000121       0.00000000 NULL
P        6.40309234       0.29334892       5.51247471       0.00000000 NULL
P        5.46549672       5.39856617       2.34494820       0.00000000 NULL
P        4.47519680       7.21360592       2.16686135       0.00000000 NULL
P        0.43632612       0.26883116       8.50191436       0.00000000 NULL
P        8.47011283       0.24345393       5.33438785       0.00000000 NULL
P        0.28923817       7.04022102       7.78162269       0.00000000 NULL
P       -1.78108408       4.45626809       4.61409618       0.00000000 NULL
P        1.49184592       3.95529290       1.44656968       0.00000000 NULL
P        6.88345469       1.92832386       2.12207859       0.00000000 NULL
P        3.80938571       4.99708469       8.45713160       0.00000000 NULL
P        2.68879536       0.80048245       5.28960510       0.00000000 NULL
P        2.80670029       2.28264950       1.93196173       0.00000000 NULL
P        5.54090790       1.28934900       8.26701474       0.00000000 NULL
P        5.03402756       4.15389250       5.09948824       0.00000000 NULL
27
Lattice="8.886753624872318 -5.967324272306361e-16 0.0 -4.443376812436157 7.696154396312874 0.0 0.0 0.0 9.439827885873296" Properties=species:S:1:pos:R:3:initial_magmoms:R:1:castep_labels:S:1 n_minim_iter=6 pbc="T T T"
P        1.52275485       4.57012532       3.58252592       0.00000000 NULL
P       -0.27584523       6.72983612       0.43591663       0.00000000 NULL
P       -1.24690961       4.09234736       6.72913522       0.00000000 NULL
P       -2.87979450       5.83552365       6.41491519       0.00000000 NULL
P        0.82956234       2.28441738       3.26830589       0.00000000 NULL
P        2.05023217       7.27236776       0.12169659       0.00000000 NULL
P        4.28342897       3.66494256       2.39801095       0.00000000 NULL
P        3.57110579       1.87708702       8.69122954       0.00000000 NULL
P        5.47559569       2.15412482       5.54462025       0.00000000 NULL
P        4.87381769       2.07081245       0.98106007       0.00000000 NULL
P        4.65646860       3.18544371       7.27427866       0.00000000 NULL
P        3.79984416       2.43989824       4.12766936       0.00000000 NULL
P        1.47475351       2.03960923       8.62263494       0.00000000 NULL
P        6.38302346       0.25736939       5.47602565       0.00000000 NULL
P        5.47235347       5.39917577       2.32941635       0.00000000 NULL
P        4.45018220       7.18378686       2.15401686       0.00000000 NULL
P        0.44032062       0.26207741       8.44723545       0.00000000 NULL
P        8.43962763       0.25029013       5.30062615       0.00000000 NULL
P        0.29715638       7.00102300       7.75155986       0.00000000 NULL
P       -1.76826515       4.45298787       4.60495056       0.00000000 NULL
P        1.47110877       3.93829792       1.45834126       0.00000000 NULL
P        6.84699402       1.91489908       2.09513578       0.00000000 NULL
P        3.80490537       4.97222122       8.38835437       0.00000000 NULL
P        2.67823105       0.80903409       5.24174508       0.00000000 NULL
P        2.75862436       2.23550980       1.92421539       0.00000000 NULL
P        5.57143317       1.27128387       8.21743398       0.00000000 NULL
P        5.00007292       4.18936072       5.07082469       0.00000000 NULL
27
Lattice="9.263360753903976 -3.954864873286595e-16 0.0 -4.631680376951986 8.022305737300613 0.0 0.0 0.0 9.854856745247375" Properties=species:S:1:pos:R:3:initial_magmoms:R:1:castep_labels:S:1 n_minim_iter=7 pbc="T T T"
P        1.58088711       4.73211400       3.73310821       0.00000000 NULL
P       -0.25689412       7.02533713       0.44815596       0.00000000 NULL
P       -1.32399299       4.28716034       7.01806046       0.00000000 NULL
P       -2.96986948       6.04093582       6.69156342       0.00000000 NULL
P        0.88501124       2.42985541       3.40661117       0.00000000 NULL
P        2.08485825       7.57382025       0.12165892       0.00000000 NULL
P        4.45500914       3.84075225       2.48623788       0.00000000 NULL
P        3.70966716       1.93777496       9.05614237       0.00000000 NULL
P        5.73036483       2.24377852       5.77119012       0.00000000 NULL
P        5.12828151       2.14966453       1.04077625       0.00000000 NULL
P        4.83755591       3.36638980       7.61068075       0.00000000 NULL
P        3.92920372       2.50625141       4.32572850       0.00000000 NULL
P        1.49596543       2.14644731       9.00144468       0.00000000 NULL
P        6.65650014       0.22232041       5.71649243       0.00000000 NULL
P        5.74257557       5.65353802       2.43154018       0.00000000 NULL
P        4.62755607       7.48716380       2.25065490       0.00000000 NULL
P        0.46550867       0.26399921       8.82055940       0.00000000 NULL
P        8.80197640       0.27114273       5.53560715       0.00000000 NULL
P        0.32363793       7.28269715       8.10706111       0.00000000 NULL
P       -1.83713932       4.66123583       4.82210886       0.00000000 NULL
P        1.51350140       4.10067850       1.53715661       0.00000000 NULL
P        7.12994286       1.98840543       2.17417182       0.00000000 NULL
P        3.97637971       5.18050892       8.74407632       0.00000000 NULL
P        2.78871857       0.85339138       5.45912407       0.00000000 NULL
P        2.84316129       2.28935305       2.01848464       0.00000000 NULL
P        5.85914221       1.31757338       8.58838913       0.00000000 NULL
P        5.19273763       4.41537931       5.30343688       0.00000000 NULL
27
Lattice="8.900446877153591 -6.848087641474785e-16 0.0 -4.450223438576794 7.708013100648884 0.0 0.0 0.0 9.425406326147193" Properties=species:S:1:pos:R:3:initial_magmoms:R:1:castep_labels:S:1 n_minim_iter=8 pbc="T T T"
P        1.51806597       4.54240283       3.56775537       0.00000000 NULL
P       -0.24264579       6.75149537       0.42595326       0.00000000 NULL
P       -1.27542017       4.12212800       6.70955748       0.00000000 NULL
P       -2.84963903       5.79840460       6.39810310       0.00000000 NULL
P        0.85347728       2.34095101       3.25630100       0.00000000 NULL
P        1.99616176       7.27667060       0.11449889       0.00000000 NULL
P        4.27953745       3.68995878       2.37609562       0.00000000 NULL
P        3.56508011       1.86120876       8.65969983       0.00000000 NULL
P        5.50605276       2.15684556       5.51789772       0.00000000 NULL
P        4.93007103       2.06646166       0.99685657       0.00000000 NULL
P        4.64580307       3.23633592       7.28046079       0.00000000 NULL
P        3.77479622       2.40521552       4.13865868       0.00000000 NULL
P        1.43520466       2.06205228       8.60898257       0.00000000 NULL
P        6.39705489       0.21189755       5.46718046       0.00000000 NULL
P        5.51841077       5.43406327       2.32537835       0.00000000 NULL
P        4.44644598       7.19127233       2.15293442       0.00000000 NULL
P        0.44939936       0.25509901       8.43653864       0.00000000 NULL
P        8.45482498       0.26164176       5.29473653       0.00000000 NULL
P        0.31285611       6.99812510       7.75794963       0.00000000 NULL
P       -1.76675873       4.47989189       4.61614753       0.00000000 NULL
P        1.45390262       3.93800921       1.47434542       0.00000000 NULL
P        6.84848559       1.91018648       2.07845228       0.00000000 NULL
P        3.82193407       4.97586925       8.36205650       0.00000000 NULL
P        2.68025067       0.82195736       5.22025439       0.00000000 NULL
P        2.72881413       2.19887738       1.93206291       0.00000000 NULL
P        5.63175614       1.26378367       8.21566712       0.00000000 NULL
P        4.99010004       4.24535205       5.07386502       0.00000000 NULL
27
Lattice="8.948367418488257 9.880658620417616e-16 0.0 -4.474183709244128 7.749513506807806 0.0 0.0 0.0 9.480734836764622" Properties=species:S:1:pos:R:3:initial_magmoms:R:1:castep_labels:S:1 n_minim_iter=9 pbc="T T T"
P        1.52604296       4.56533272       3.58910714       0.00000000 NULL
P       -0.24253188       6.78843912       0.42886220       0.00000000 NULL
P       -1.28351108       4.14525517       6.74935209       0.00000000 NULL
P       -2.86260931       5.82713462       6.43532103       0.00000000 NULL
P        0.85904176       2.35685381       3.27507608       0.00000000 NULL
P        2.00356756       7.31503859       0.11483114       0.00000000 NULL
P        4.30146195       3.71095075       2.38869233       0.00000000 NULL
P        3.58385883       1.86969995       8.70918222       0.00000000 NULL
P        5.53723036       2.16886281       5.54893727       0.00000000 NULL
P        4.95946668       2.07720627       1.00323563       0.00000000 NULL
P        4.66972068       3.25642100       7.32372552       0.00000000 NULL
P        3.79336377       2.41588624       4.16348057       0.00000000 NULL
P        1.44025456       2.07472516       8.65949662       0.00000000 NULL
P        6.43147545       0.20993445       5.49925168       0.00000000 NULL
P        5.55082113       5.46485389       2.33900673       0.00000000 NULL
P        4.46952293       7.22976349       2.16575066       0.00000000 NULL
P        0.45244711       0.25583866       8.48624055       0.00000000 NULL
P        8.50058109       0.26391136       5.32599560       0.00000000 NULL
P        0.31594585       7.03492222       7.80390253       0.00000000 NULL
P       -1.77621057       4.50566952       4.64365758       0.00000000 NULL
P        1.46026473       3.95843527       1.48341264       0.00000000 NULL
P        6.88535373       1.91990259       2.09005113       0.00000000 NULL
P        3.84300614       5.00293995       8.41054102       0.00000000 NULL
P        2.69419126       0.82667097       5.25029607       0.00000000 NULL
P        2.74157684       2.20799288       1.94419282       0.00000000 NULL
P        5.66540108       1.27027875       8.26468271       0.00000000 NULL
P        5.01557322       4.27124188       5.10443776       0.00000000 NULL
27
Lattice="8.941626316895954 3.2797232627636265e-16 0.0 -4.470813158447976 7.743675541579381 0.0 0.0 0.0 9.475580785814655" Properties=species:S:1:pos:R:3:initial_magmoms:R:1:castep_labels:S:1 n_minim_iter=10 pbc="T T T"
P        1.52467723       4.56033893       3.58719167       0.00000000 NULL
P       -0.24089482       6.78391529       0.42866474       0.00000000 NULL
P       -1.28378240       4.14309686       6.74571860       0.00000000 NULL
P       -2.85828926       5.82030303       6.43137919       0.00000000 NULL
P        0.85942752       2.35817291       3.27285226       0.00000000 NULL
P        1.99886175       7.30887514       0.11432534       0.00000000 NULL
P        4.29727962       3.70894775       2.38617449       0.00000000 NULL
P        3.58094354       1.86707944       8.70322835       0.00000000 NULL
P        5.53421632       2.16764835       5.54470142       0.00000000 NULL
P        4.95812440       2.07549075       1.00320903       0.00000000 NULL
P        4.66513641       3.25611631       7.32026289       0.00000000 NULL
P        3.78917868       2.41206849       4.16173596       0.00000000 NULL
P        1.43696920       2.07428411       8.65477331       0.00000000 NULL
P        6.42675898       0.20730978       5.49624638       0.00000000 NULL
P        5.54871130       5.46208165       2.33771945       0.00000000 NULL
P        4.46555159       7.22382994       2.16474651       0.00000000 NULL
P        0.45283029       0.25536615       8.48180037       0.00000000 NULL
P        8.49405761       0.26447946       5.32327344       0.00000000 NULL
P        0.31698839       7.02907622       7.80039662       0.00000000 NULL
P       -1.77503961       4.50365743       4.64186969       0.00000000 NULL
P        1.45805122       3.95461743       1.48334276       0.00000000 NULL
P        6.87996940       1.91798748       2.08835698       0.00000000 NULL
P        3.84061574       4.99923453       8.40541083       0.00000000 NULL
P        2.69185435       0.82645352       5.24688391       0.00000000 NULL
P        2.73776837       2.20422026       1.94390789       0.00000000 NULL
P        5.66383140       1.26886682       8.26096175       0.00000000 NULL
P        5.01083972       4.27058846       5.10243482       0.00000000 NULL
27
Lattice="8.943709967499471 -1.1596286536608194e-15 0.0 -4.471854983749734 7.745480035934638 0.0 0.0 0.0 9.478369455674056" Properties=species:S:1:pos:R:3:initial_magmoms:R:1:castep_labels:S:1 n_minim_iter=11 pbc="T T T"
P        1.52468149       4.55866082       3.58842848       0.00000000 NULL
P       -0.23840184       6.78656253       0.42897200       0.00000000 NULL
P       -1.28627965       4.14573672       6.74788497       0.00000000 NULL
P       -2.85497648       5.81728249       6.43248779       0.00000000 NULL
P        0.86142881       2.36435663       3.27303130       0.00000000 NULL
P        1.99354768       7.30932095       0.11357481       0.00000000 NULL
P        4.29651057       3.71131628       2.38461022       0.00000000 NULL
P        3.58136051       1.86522916       8.70352319       0.00000000 NULL
P        5.53769388       2.16893460       5.54406671       0.00000000 NULL
P        4.96368525       2.07568455       1.00439864       0.00000000 NULL
P        4.66427180       3.26083525       7.32331161       0.00000000 NULL
P        3.78760791       2.40896024       4.16385512       0.00000000 NULL
P        1.43323539       2.07692124       8.65729190       0.00000000 NULL
P        6.42842572       0.20275763       5.49783541       0.00000000 NULL
P        5.55390385       5.46580116       2.33837893       0.00000000 NULL
P        4.46542772       7.22466987       2.16570363       0.00000000 NULL
P        0.45424846       0.25483891       8.48461660       0.00000000 NULL
P        8.49588877       0.26597125       5.32516012       0.00000000 NULL
P        0.31944690       7.02965984       7.80395377       0.00000000 NULL
P       -1.77573247       4.50729925       4.64449728       0.00000000 NULL
P        1.45628557       3.95400098       1.48504080       0.00000000 NULL
P        6.88130822       1.91756008       2.08798296       0.00000000 NULL
P        3.84240011       5.00060769       8.40689593       0.00000000 NULL
P        2.69185662       0.82731226       5.24743945       0.00000000 NULL
P        2.73522259       2.20075717       1.94589083       0.00000000 NULL
P        5.67018706       1.26839366       8.26480380       0.00000000 NULL
P        5.01015531       4.27632920       5.10534731       0.00000000 NULL
27
Lattice="9.008170846225893 -1.4756472948548978e-15 0.0 -4.504085423112945 7.801304794461986 0.0 0.0 0.0 9.480898426455537" Properties=species:S:1:pos:R:3:initial_magmoms:R:1:castep_labels:S:1 n_minim_iter=12 pbc="T T T"
P        1.53032542       4.54403388       3.59367608       0.00000000 NULL
P       -0.19632606       6.85458854       0.43337661       0.00000000 NULL
P       -1.33399936       4.20398717       6.75397556       0.00000000 NULL
P       -2.80329186       5.78176112       6.41991245       0.00000000 NULL
P        0.89857935       2.48270227       3.25961297       0.00000000 NULL
P        1.90471252       7.33814621       0.09931350       0.00000000 NULL
P        4.29489932       3.76503181       2.34365508       0.00000000 NULL
P        3.60010800       1.83697601       8.66425404       0.00000000 NULL
P        5.61724896       2.19929698       5.50395456       0.00000000 NULL
P        5.07807364       2.08653095       1.01950672       0.00000000 NULL
P        4.66214522       3.35447529       7.34010567       0.00000000 NULL
P        3.77203742       2.36029855       4.17980619       0.00000000 NULL
P        1.37098133       2.13101814       8.65912959       0.00000000 NULL
P        6.47716434       0.12179559       5.49883011       0.00000000 NULL
P        5.66411061       5.54849107       2.33853064       0.00000000 NULL
P        4.47644733       7.26066025       2.17221035       0.00000000 NULL
P        0.48203096       0.24638698       8.49280930       0.00000000 NULL
P        8.55377799       0.29425757       5.33250982       0.00000000 NULL
P        0.36599089       7.06180388       7.82861516       0.00000000 NULL
P       -1.79461158       4.58736026       4.66831568       0.00000000 NULL
P        1.42862069       3.95344545       1.50801621       0.00000000 NULL
P        6.92739646       1.91557166       2.07168591       0.00000000 NULL
P        3.88553890       5.04151548       8.39228486       0.00000000 NULL
P        2.69932092       0.84421765       5.23198538       0.00000000 NULL
P        2.69783667       2.14465875       1.97198110       0.00000000 NULL
P        5.80192355       1.26406572       8.29258005       0.00000000 NULL
P        5.01249605       4.39258033       5.13228057       0.00000000 NULL
27
Lattice="9.83597628414549 -8.395053108228568e-16 0.0 -4.917988142072744 8.51820533309126 0.0 0.0 0.0 9.595224774090827" Properties=species:S:1:pos:R:3:initial_magmoms:R:1:castep_labels:S:1 n_minim_iter=13 pbc="T T T"
P        1.68864134       4.98742245       3.65952972       0.00000000 NULL
P       -0.24556706       7.48690041       0.46112146       0.00000000 NULL
P       -1.44307427       4.56208781       6.85793797       0.00000000 NULL
P       -3.03317393       6.31913055       6.48973462       0.00000000 NULL
P        0.96204753       2.73183438       3.29132636       0.00000000 NULL
P        2.07112641       7.98544574       0.09291810       0.00000000 NULL
P        4.67028945       4.12220115       2.33797138       0.00000000 NULL
P        3.93090065       1.98348873       8.73478790       0.00000000 NULL
P        6.15277433       2.41251546       5.53637964       0.00000000 NULL
P        5.56826636       2.29520555       1.02435948       0.00000000 NULL
P        5.06413680       3.67465735       7.42117599       0.00000000 NULL
P        4.12156127       2.54834244       4.22276773       0.00000000 NULL
P        1.47126063       2.34300503       8.76279549       0.00000000 NULL
P        7.07124409       0.10264656       5.56438723       0.00000000 NULL
P        6.21145971       6.07255374       2.36597897       0.00000000 NULL
P        4.87868632       7.90447519       2.20517752       0.00000000 NULL
P        0.55115681       0.27282870       8.60199403       0.00000000 NULL
P        9.32412130       0.34090145       5.40358578       0.00000000 NULL
P        0.43569382       7.70914374       7.92518511       0.00000000 NULL
P       -1.97617309       5.04095537       4.72677685       0.00000000 NULL
P        1.54047928       4.28631155       1.52836859       0.00000000 NULL
P        7.58767343       2.08360376       2.10394264       0.00000000 NULL
P        4.23768579       5.52931606       8.50075915       0.00000000 NULL
P        2.92860522       0.90528551       5.30235090       0.00000000 NULL
P        2.92355398       2.30370409       2.00675521       0.00000000 NULL
P        6.37913304       1.38001997       8.40357173       0.00000000 NULL
P        5.45127742       4.83448128       5.20516347       0.00000000 NULL
27
Lattice="9.143147940753511 2.483054267392205e-16 0.0 -4.571573970376756 7.918198387251917 0.0 0.0 0.0 9.084866898087398" Properties=species:S:1:pos:R:3:initial_magmoms:R:1:castep_labels:S:1 n_minim_iter=14 pbc="T T T"
P        1.56856500       4.63235213       3.46317730       0.00000000 NULL
P       -0.22444316       6.96043946       0.43488834       0.00000000 NULL
P       -1.34412184       4.24360518       6.49146627       0.00000000 NULL
P       -2.81633061       5.86867760       6.14230778       0.00000000 NULL
P        0.89731539       2.54484573       3.11401881       0.00000000 NULL
P        1.91901523       7.42287344       0.08572984       0.00000000 NULL
P        4.34186764       3.82996310       2.21261306       0.00000000 NULL
P        3.65536878       1.84518612       8.26919099       0.00000000 NULL
P        5.71748550       2.24304916       5.24090202       0.00000000 NULL
P        5.17792992       2.13509713       0.97035358       0.00000000 NULL
P        4.70513463       3.41667028       7.02693151       0.00000000 NULL
P        3.83165737       2.36643098       3.99864254       0.00000000 NULL
P        1.36788357       2.17487477       8.29647829       0.00000000 NULL
P        6.57570936       0.09718454       5.26818932       0.00000000 NULL
P        5.77112899       5.64613908       2.23990036       0.00000000 NULL
P        4.53726715       7.34381463       2.08829242       0.00000000 NULL
P        0.51458433       0.25748130       8.14487035       0.00000000 NULL
P        8.66287043       0.31690245       5.11658139       0.00000000 NULL
P        0.40756595       7.16801805       7.50681906       0.00000000 NULL
P       -1.83989473       4.68715182       4.47853009       0.00000000 NULL
P        1.43232879       3.98122690       1.45024113       0.00000000 NULL
P        7.05042824       1.93746296       1.99142857       0.00000000 NULL
P        3.94004168       5.13711848       8.04800650       0.00000000 NULL
P        2.72425199       0.84361694       5.01971753       0.00000000 NULL
P        2.71601124       2.14395822       1.90177042       0.00000000 NULL
P        5.92842004       1.28015562       7.95834835       0.00000000 NULL
P        5.07029064       4.49408454       4.93005939       0.00000000 NULL
27
Lattice="9.15721254139673 -3.397326802394995e-16 0.0 -4.578606270698364 7.930378688703027 0.0 0.0 0.0 9.211661291900372" Properties=species:S:1:pos:R:3:initial_magmoms:R:1:castep_labels:S:1 n_minim_iter=15 pbc="T T T"
P        1.57143915       4.64014699       3.51342654       0.00000000 NULL
P       -0.22559847       6.97121142       0.44287278       0.00000000 NULL
P       -1.34584067       4.24939897       6.58398030       0.00000000 NULL
P       -2.81930676       5.87786701       6.22832528       0.00000000 NULL
P        0.89787750       2.54985391       3.15777152       0.00000000 NULL
P        1.92142926       7.43303646       0.08721775       0.00000000 NULL
P        4.34809170       3.83645896       2.24235407       0.00000000 NULL
P        3.66069577       1.84732839       8.38346159       0.00000000 NULL
P        5.72703135       2.24659134       5.31290783       0.00000000 NULL
P        5.18702378       2.13887634       0.98370261       0.00000000 NULL
P        4.71137940       3.42265619       7.12481014       0.00000000 NULL
P        3.83741563       2.36884615       4.05425638       0.00000000 NULL
P        1.36967019       2.17841442       8.41219102       0.00000000 NULL
P        6.58581522       0.09696197       5.34163725       0.00000000 NULL
P        5.78033340       5.65500230       2.27108349       0.00000000 NULL
P        4.54417867       7.35436822       2.11781782       0.00000000 NULL
P        0.51605351       0.25819005       8.25892535       0.00000000 NULL
P        8.67558665       0.31782042       5.18837158       0.00000000 NULL
P        0.40950474       7.17896401       7.61002679       0.00000000 NULL
P       -1.84331130       4.69553820       4.53947302       0.00000000 NULL
P        1.43380656       3.98625518       1.46891926       0.00000000 NULL
P        7.06192665       1.94035643       2.01935409       0.00000000 NULL
P        3.94585125       5.14562966       8.16046162       0.00000000 NULL
P        2.72804091       0.84439259       5.08990786       0.00000000 NULL
P        2.71949005       2.14632989       1.92856920       0.00000000 NULL
P        5.93869131       1.28198252       8.06967673       0.00000000 NULL
P        5.07763746       4.50206628       4.99912296       0.00000000 NULL
27
Lattice="9.123363580627416 -3.506745586537709e-16 0.0 -4.561681790313707 7.901064628785099 0.0 0.0 0.0 9.250659396767867" Properties=species:S:1:pos:R:3:initial_magmoms:R:1:castep_labels:S:1 n_minim_iter=16 pbc="T T T"
P        1.56605463       4.62324021       3.52944804       0.00000000 NULL
P       -0.22518899       6.94568761       0.44589491       0.00000000 NULL
P       -1.34086563       4.23320144       6.61300117       0.00000000 NULL
P       -2.80738612       5.85590880       6.25469973       0.00000000 NULL
P        0.89400907       2.54184253       3.17114660       0.00000000 NULL
P        1.91337706       7.40437793       0.08759347       0.00000000 NULL
P        4.33155502       3.82266747       2.25069908       0.00000000 NULL
P        3.64705894       1.83990295       8.41780535       0.00000000 NULL
P        5.70643142       2.23849421       5.33425221       0.00000000 NULL
P        5.16904202       2.13163510       0.98769521       0.00000000 NULL
P        4.69279242       3.41070415       7.15480148       0.00000000 NULL
P        3.82321093       2.35872537       4.07124834       0.00000000 NULL
P        1.36432441       2.17048344       8.44775600       0.00000000 NULL
P        6.56150759       0.09629787       5.36420286       0.00000000 NULL
P        5.75921339       5.63428332       2.28064973       0.00000000 NULL
P        4.52738160       7.32615602       2.12718262       0.00000000 NULL
P        0.51503556       0.25774947       8.29428889       0.00000000 NULL
P        8.64262822       0.31715914       5.21073576       0.00000000 NULL
P        0.40929448       7.15248589       7.64156310       0.00000000 NULL
P       -1.83719992       4.67928110       4.55800997       0.00000000 NULL
P        1.42790545       3.97036227       1.47445684       0.00000000 NULL
P        7.03619900       1.93310939       2.02796945       0.00000000 NULL
P        3.93114225       5.12697238       8.19507572       0.00000000 NULL
P        2.71770413       0.84098286       5.11152259       0.00000000 NULL
P        2.70863965       2.13761016       1.93716481       0.00000000 NULL
P        5.91781905       1.27694566       8.10427107       0.00000000 NULL
P        5.05858667       4.48650880       5.02071794       0.00000000 NULL
27
Lattice="9.084111213859318 -1.4281852448749804e-16 0.0 -4.542055606929658 7.867071082005262 0.0 0.0 0.0 9.322612596637182" Properties=species:S:1:pos:R:3:initial_magmoms:R:1:castep_labels:S:1 n_minim_iter=17 pbc="T T T"
P        1.56044208       4.60412511       3.55913213       0.00000000 NULL
P       -0.22545474       6.91639101       0.45159460       0.00000000 NULL
P       -1.33498734       4.21362604       6.66666966       0.00000000 NULL
P       -2.79204556       5.83057234       6.30343046       0.00000000 NULL
P        0.88865462       2.53380253       3.19589293       0.00000000 NULL
P        1.90339094       7.36976729       0.08835539       0.00000000 NULL
P        4.31171489       3.80719009       2.26556663       0.00000000 NULL
P        3.63113044       1.83045958       8.48064169       0.00000000 NULL
P        5.68332150       2.22942141       5.37310416       0.00000000 NULL
P        5.14938688       2.12396232       0.99483012       0.00000000 NULL
P        4.67001245       3.39751870       7.20990518       0.00000000 NULL
P        3.80676749       2.34559007       4.10236765       0.00000000 NULL
P        1.35778226       2.16187441       8.51335512       0.00000000 NULL
P        6.53298192       0.09493672       5.40581759       0.00000000 NULL
P        5.73540264       5.61025994       2.29828006       0.00000000 NULL
P        4.50762996       7.29256626       2.14461262       0.00000000 NULL
P        0.51474860       0.25743892       8.35968768       0.00000000 NULL
P        8.60378827       0.31706590       5.25215015       0.00000000 NULL
P        0.41029112       7.12168501       7.69987869       0.00000000 NULL
P       -1.83065008       4.66155111       4.59234116       0.00000000 NULL
P        1.42035897       3.95090605       1.48480362       0.00000000 NULL
P        7.00704781       1.92456892       2.04400461       0.00000000 NULL
P        3.91386174       5.10599695       8.25907967       0.00000000 NULL
P        2.70525728       0.83650521       5.15154214       0.00000000 NULL
P        2.69529087       2.12627353       1.95319176       0.00000000 NULL
P        5.89505889       1.27105359       8.16826682       0.00000000 NULL
P        5.03581707       4.46974396       5.06072929       0.00000000 NULL
