12
Lattice="6.308470000000002 -1.807952584584979e-32 -3.9942149686706565e-32 3.154235000000001 6.4874345240371625 5.721813804464e-13 3.1542350000000003 1.8038161870941412 6.231617275382567" Properties=species:S:1:pos:R:3:initial_magmoms:R:1:castep_labels:S:1 n_minim_iter=1 pbc="T T T"
P        8.62538903       6.67624347       0.88662703       0.00000000 NULL
P        3.99155096       2.70797899       6.16645637       0.00000000 NULL
P        7.14578596       4.33443430       4.00243567       0.00000000 NULL
P        5.47115403       5.04978815       3.05064773       0.00000000 NULL
P        6.75798760       5.14584813       1.27880264       0.00000000 NULL
P        5.85895240       2.65916715       4.58736517       0.00000000 NULL
P        9.01318740       2.80403896       4.39461128       0.00000000 NULL
P        3.60375260       5.00097632       1.47155653       0.00000000 NULL
P        7.17896821       3.32033439       0.00724986       0.00000000 NULL
P        5.43797179       0.93017529       3.18738874       0.00000000 NULL
P        2.28373679       0.97852522       3.12305850       0.00000000 NULL
P        4.02473321       3.27198446       0.07158010       0.00000000 NULL
12
Lattice="6.312380696557578 -1.213796244767331e-18 -5.35655379770105e-19 3.156190348278789 6.484411108237809 -0.002994913843591363 3.1561903482787885 1.8000987170958846 6.2295458099974335" Properties=species:S:1:pos:R:3:initial_magmoms:R:1:castep_labels:S:1 n_minim_iter=2 pbc="T T T"
P        8.63053078       6.67266670       0.88355215       0.00000000 NULL
P        3.99423061       2.70403084       6.16387561       0.00000000 NULL
P        7.15042096       4.33051050       3.99982251       0.00000000 NULL
P        5.47434043       5.04618704       3.04760524       0.00000000 NULL
P        6.76217286       5.14282158       1.27608038       0.00000000 NULL
P        5.86258854       2.65571071       4.58521488       0.00000000 NULL
P        9.01877888       2.80066538       4.39235074       0.00000000 NULL
P        3.60598251       4.99786690       1.46894452       0.00000000 NULL
P        7.18339098       3.31879219       0.00573841       0.00000000 NULL
P        5.44137041       0.92829463       3.18632760       0.00000000 NULL
P        2.28518006       0.97663599       3.12200877       0.00000000 NULL
P        4.02720063       3.27045083       0.07005724       0.00000000 NULL
12
Lattice="6.6591890476066675 3.4699447320430245e-17 6.424581018260325e-17 3.3295945238033338 6.236200896813879 -0.25062353095259393 3.329594523803333 1.4932204961215503 6.059975769724819" Properties=species:S:1:pos:R:3:initial_magmoms:R:1:castep_labels:S:1 n_minim_iter=3 pbc="T T T"
P        9.08621640       6.37818962       0.62997287       0.00000000 NULL
P        4.23216170       2.37857222       5.95151769       0.00000000 NULL
P        7.56175622       4.00669942       3.78527252       0.00000000 NULL
P        5.75662187       4.75006242       2.79621804       0.00000000 NULL
P        7.13331218       4.89435299       1.05134389       0.00000000 NULL
P        6.18506592       2.37075007       4.40903155       0.00000000 NULL
P        9.51466044       2.52286279       4.20664354       0.00000000 NULL
P        3.80371765       4.74224027       1.25373190       0.00000000 NULL
P        7.57556101       3.19209054      -0.11925802       0.00000000 NULL
P        5.74281708       0.77299805       3.09937711       0.00000000 NULL
P        2.41322256       0.82060034       3.03604163       0.00000000 NULL
P        4.24596649       3.14448825      -0.05592254       0.00000000 NULL
12
Lattice="7.004817171002854 -9.084446606979312e-18 1.0213776872639245e-16 3.502408585501427 6.261190187181503 -0.20632984836273593 3.502408585501426 1.5427157723970417 6.07166390802231" Properties=species:S:1:pos:R:3:initial_magmoms:R:1:castep_labels:S:1 n_minim_iter=4 pbc="T T T"
P        9.54888682       6.40786211       0.68235739       0.00000000 NULL
P        4.46074752       2.43714144       5.96545472       0.00000000 NULL
P        7.96315611       4.04862491       3.82135427       0.00000000 NULL
P        6.04647823       4.79637865       2.82645785       0.00000000 NULL
P        7.50173030       4.92633034       1.08422005       0.00000000 NULL
P        6.50790404       2.41122107       4.43060681       0.00000000 NULL
P       10.01031262       2.56709314       4.22321693       0.00000000 NULL
P        3.99932172       4.77045828       1.29160993       0.00000000 NULL
P        7.96807516       3.20233109      -0.09965888       0.00000000 NULL
P        6.04155918       0.79467171       3.10376436       0.00000000 NULL
P        2.53915060       0.84309388       3.03933800       0.00000000 NULL
P        4.46566657       3.15390891      -0.03523252       0.00000000 NULL
12
Lattice="6.967921503226327 -1.7896886671322155e-17 1.0660468124324136e-16 3.4839607516131634 6.151413844960843 -0.1935824145005916 3.4839607516131625 1.5244374817189537 5.962671952028739" Properties=species:S:1:pos:R:3:initial_magmoms:R:1:castep_labels:S:1 n_minim_iter=5 pbc="T T T"
P        9.49638655       6.29548642       0.68176646       0.00000000 NULL
P        4.43945645       2.40532801       5.85767462       0.00000000 NULL
P        7.92341720       3.98199824       3.75989364       0.00000000 NULL
P        6.01242580       4.71881619       2.77954744       0.00000000 NULL
P        7.46110240       4.84313563       1.07081678       0.00000000 NULL
P        6.47474060       2.37521423       4.35441944       0.00000000 NULL
P        9.95870135       2.52964745       4.14894396       0.00000000 NULL
P        3.97714165       4.68870241       1.27629226       0.00000000 NULL
P        7.92536749       3.14527441      -0.09426145       0.00000000 NULL
P        6.01047551       0.78399182       3.04745683       0.00000000 NULL
P        2.52651476       0.83178623       2.98386573       0.00000000 NULL
P        4.44140674       3.09748001      -0.03067035       0.00000000 NULL
12
Lattice="7.0112221851614445 -6.5578775109903175e-18 1.1683400292089763e-16 3.5056110925807222 6.136643961787695 -0.1553514595479306 3.5056110925807213 1.557054153872509 5.937854456926123" Properties=species:S:1:pos:R:3:initial_magmoms:R:1:castep_labels:S:1 n_minim_iter=6 pbc="T T T"
P        9.55230119       6.28513024       0.71769146       0.00000000 NULL
P        4.47014318       2.43695688       5.83773795       0.00000000 NULL
P        7.97575427       3.99533534       3.76429442       0.00000000 NULL
P        6.04669010       4.72675178       2.79113499       0.00000000 NULL
P        7.50660382       4.84076078       1.09333145       0.00000000 NULL
P        6.51584055       2.39618076       4.34587809       0.00000000 NULL
P       10.02145164       2.55096588       4.13993441       0.00000000 NULL
P        4.00099273       4.68597567       1.29927513       0.00000000 NULL
P        7.97442237       3.13684760      -0.07650714       0.00000000 NULL
P        6.04802200       0.79870298       3.03442577       0.00000000 NULL
P        2.54241090       0.84705270       2.97009582       0.00000000 NULL
P        4.46881128       3.08849788      -0.01217718       0.00000000 NULL
12
Lattice="7.044882173285987 -1.2557708606037027e-17 1.3658754986672546e-16 3.5224410866429934 6.099995147159328 -0.10743831902704257 3.5224410866429925 1.5928878302297844 5.889328667010236" Properties=species:S:1:pos:R:3:initial_magmoms:R:1:castep_labels:S:1 n_minim_iter=7 pbc="T T T"
P        9.59380047       6.25361726       0.76004740       0.00000000 NULL
P        4.49596387       2.46888050       5.79569064       0.00000000 NULL
P        8.01840496       4.00006360       3.75843090       0.00000000 NULL
P        6.07135938       4.72243416       2.79730714       0.00000000 NULL
P        7.54168707       4.82327133       1.11782856       0.00000000 NULL
P        6.54807727       2.41484899       4.32226693       0.00000000 NULL
P       10.07051836       2.56971767       4.11621205       0.00000000 NULL
P        4.01924598       4.66840265       1.32388344       0.00000000 NULL
P        8.01238205       3.11730001      -0.05434780       0.00000000 NULL
P        6.07738229       0.81455335       3.00948764       0.00000000 NULL
P        2.55494121       0.86374635       2.94403570       0.00000000 NULL
P        4.48994096       3.06810701       0.01110415       0.00000000 NULL
12
Lattice="7.143058173094907 -2.5623819862778167e-17 1.8322323411250408e-16 3.5715290865474536 5.994271770316152 0.047607277599718244 3.5715290865474527 1.7124234150644566 5.7446641813798465" Properties=species:S:1:pos:R:3:initial_magmoms:R:1:castep_labels:S:1 n_minim_iter=8 pbc="T T T"
P        9.71184161       6.16621462       0.89692410       0.00000000 NULL
P        4.57427473       2.57605767       5.67367627       0.00000000 NULL
P        8.14580382       4.02529044       3.74545255       0.00000000 NULL
P        6.14031253       4.71698184       2.82514782       0.00000000 NULL
P        7.64509846       4.77552369       1.19946135       0.00000000 NULL
P        6.64101788       2.47998665       4.25370430       0.00000000 NULL
P       10.21254697       2.63459952       4.04798980       0.00000000 NULL
P        4.07356937       4.62091083       1.40517585       0.00000000 NULL
P        8.12337909       3.06213924       0.01753632       0.00000000 NULL
P        6.16273725       0.86826556       2.93651480       0.00000000 NULL
P        2.59120817       0.92121507       2.86606477       0.00000000 NULL
P        4.55185000       3.00918974       0.08798635       0.00000000 NULL
12
Lattice="7.200132531787566 -5.478564230344893e-17 2.220577963409138e-16 3.600066265893783 5.9824481600830035 0.1706251726202252 3.600066265893782 1.8273028512269633 5.699101966758448" Properties=species:S:1:pos:R:3:initial_magmoms:R:1:castep_labels:S:1 n_minim_iter=9 pbc="T T T"
P        9.77621830       6.17226989       1.01158363       0.00000000 NULL
P        4.62404676       2.68787952       5.64761195       0.00000000 NULL
P        8.22411303       4.09469724       3.77582203       0.00000000 NULL
P        6.17615203       4.76545217       2.88337355       0.00000000 NULL
P        7.70841250       4.79187625       1.27783480       0.00000000 NULL
P        6.69185256       2.55981641       4.24762048       0.00000000 NULL
P       10.29191882       2.71430360       4.04207319       0.00000000 NULL
P        4.10834624       4.63738906       1.48338208       0.00000000 NULL
P        8.18875889       3.05914657       0.07609543       0.00000000 NULL
P        6.21150617       0.92368342       2.91735791       0.00000000 NULL
P        2.61143990       0.98157392       2.84033383       0.00000000 NULL
P        4.58869263       3.00125608       0.15311952       0.00000000 NULL
12
Lattice="7.193336124729026 -4.9575394496768514e-17 2.1703632913754004e-16 3.596668062364513 5.925830348411634 0.24790947554808193 3.596668062364512 1.8857971713876485 5.6232280279755" Properties=species:S:1:pos:R:3:initial_magmoms:R:1:castep_labels:S:1 n_minim_iter=10 pbc="T T T"
P        9.75383994       6.12567577       1.07637204       0.00000000 NULL
P        4.63283231       2.73715775       5.58484089       0.00000000 NULL
P        8.22950037       4.10565918       3.76403131       0.00000000 NULL
P        6.15717187       4.75717434       2.89718162       0.00000000 NULL
P        7.70485114       4.76149132       1.31576803       0.00000000 NULL
P        6.68182111       2.58780537       4.20788646       0.00000000 NULL
P       10.27848917       2.74147473       4.00342730       0.00000000 NULL
P        4.10818308       4.60782196       1.52022718       0.00000000 NULL
P        8.18107430       3.03475550       0.11329964       0.00000000 NULL
P        6.20559795       0.95263869       2.88358410       0.00000000 NULL
P        2.60892988       1.01473891       2.80095892       0.00000000 NULL
P        4.58440624       2.97265528       0.19592483       0.00000000 NULL
12
Lattice="7.240335180398158 -2.841288877689621e-17 2.3989665385530023e-16 3.620167590199079 5.960116735739686 0.27694775701192065 3.620167590199078 1.92322364497704 5.6480883823785435" Properties=species:S:1:pos:R:3:initial_magmoms:R:1:castep_labels:S:1 n_minim_iter=11 pbc="T T T"
P        9.81231697       6.16535961       1.10835338       0.00000000 NULL
P        4.66835339       2.77891198       5.61406755       0.00000000 NULL
P        8.28852098       4.14691306       3.79392369       0.00000000 NULL
P        6.19214938       4.79735853       2.92849724       0.00000000 NULL
P        7.75681252       4.79423311       1.34074023       0.00000000 NULL
P        6.72385784       2.62089663       4.23239368       0.00000000 NULL
P       10.34402543       2.77578656       4.02631054       0.00000000 NULL
P        4.13664493       4.63934317       1.54682337       0.00000000 NULL
P        8.23471400       3.05414020       0.12724082       0.00000000 NULL
P        6.24595636       0.97142000       2.89832810       0.00000000 NULL
P        2.62578877       1.03569365       2.81281113       0.00000000 NULL
P        4.61454641       2.98986654       0.21275778       0.00000000 NULL
12
Lattice="7.230898768050951 -2.812613529596576e-17 2.4376351964957837e-16 3.6154493840254753 5.943633910887688 0.2854233687206159 3.6154493840254744 1.926782028800529 5.629898896033324" Properties=species:S:1:pos:R:3:initial_magmoms:R:1:castep_labels:S:1 n_minim_iter=12 pbc="T T T"
P        9.79635747       6.14972140       1.11390588       0.00000000 NULL
P        4.66544006       2.77989737       5.59750214       0.00000000 NULL
P        8.28088945       4.14129546       3.78614364       0.00000000 NULL
P        6.18090809       4.78832331       2.92526438       0.00000000 NULL
P        7.74777843       4.78251882       1.34244455       0.00000000 NULL
P        6.71401911       2.61927661       4.22066744       0.00000000 NULL
P       10.32946849       2.77409287       4.01468231       0.00000000 NULL
P        4.13232904       4.62770255       1.54842968       0.00000000 NULL
P        8.22398678       3.04689439       0.13122517       0.00000000 NULL
P        6.23781075       0.97323255       2.89026018       0.00000000 NULL
P        2.62236137       1.03846845       2.80346293       0.00000000 NULL
P        4.60853740       2.98165849       0.21802241       0.00000000 NULL
