20
Lattice="3.192489999999999 0.0 0.0 0.0 11.71212 0.0 0.0 0.0 11.731069999999999" Properties=species:S:1:pos:R:3:initial_magmoms:R:1:castep_labels:S:1 n_minim_iter=1 pbc="T T T"
P        2.82674941      10.14830017      11.55307096       0.00000000 NULL
P        0.36574059       1.56381983      11.55307096       0.00000000 NULL
P        1.96198559       4.29224017       5.68753596       0.00000000 NULL
P        1.23050441       7.41987983       5.68753596       0.00000000 NULL
P        2.09237902       2.11784176      10.29817963       0.00000000 NULL
P        1.10011098       9.59427824      10.29817963       0.00000000 NULL
P        2.69635598       7.97390176       4.43264463       0.00000000 NULL
P        0.49613402       3.73821824       4.43264463       0.00000000 NULL
P        2.85808018       0.96997787       7.09155265       0.00000000 NULL
P        0.33440982      10.74214213       7.09155265       0.00000000 NULL
P        1.93065482       6.82603787       1.22601765       0.00000000 NULL
P        1.26183518       4.88608213       1.22601765       0.00000000 NULL
P        0.92060046       4.93932660       7.29892981       0.00000000 NULL
P        2.27188954       6.77279340       7.29892981       0.00000000 NULL
P        0.67564454      10.79538660       1.43339481       0.00000000 NULL
P        2.51684546       0.91673340       1.43339481       0.00000000 NULL
P        2.42783310       3.85679175       8.55955411       0.00000000 NULL
P        0.76465690       7.85532825       8.55955411       0.00000000 NULL
P        2.36090190       9.71285175       2.69401911       0.00000000 NULL
P        0.83158810       1.99926825       2.69401911       0.00000000 NULL
20
Lattice="3.2027136292132568 0.0 0.0 0.0 11.721485122620642 0.0 0.0 0.0 11.763513979318489" Properties=species:S:1:pos:R:3:initial_magmoms:R:1:castep_labels:S:1 n_minim_iter=2 pbc="T T T"
P        2.83554432      10.15631082      11.58488540       0.00000000 NULL
P        0.36716930       1.56517430      11.58488540       0.00000000 NULL
P        1.96852612       4.29556826       5.70312841       0.00000000 NULL
P        1.23418751       7.42591687       5.70312841       0.00000000 NULL
P        2.09892369       2.11958170      10.32647364       0.00000000 NULL
P        1.10378994       9.60190342      10.32647364       0.00000000 NULL
P        2.70514676       7.98032426       4.44471665       0.00000000 NULL
P        0.49756687       3.74116086       4.44471665       0.00000000 NULL
P        2.86725640       0.97078667       7.11115753       0.00000000 NULL
P        0.33545723      10.75069845       7.11115753       0.00000000 NULL
P        1.93681404       6.83152923       1.22940054       0.00000000 NULL
P        1.26589959       4.88995589       1.22940054       0.00000000 NULL
P        0.92344512       4.94326589       7.31945425       0.00000000 NULL
P        2.27926851       6.77821923       7.31945425       0.00000000 NULL
P        0.67791170      10.80400845       1.43769726       0.00000000 NULL
P        2.52480193       0.91747667       1.43769726       0.00000000 NULL
P        2.43560677       3.85989693       8.58322082       0.00000000 NULL
P        0.76710686       7.86158820       8.58322082       0.00000000 NULL
P        2.36846367       9.72063949       2.70146383       0.00000000 NULL
P        0.83424996       2.00084563       2.70146383       0.00000000 NULL
20
Lattice="3.3913370569063193 0.0 0.0 0.0 11.88406291192946 0.0 0.0 0.0 12.355626721985338" Properties=species:S:1:pos:R:3:initial_magmoms:R:1:castep_labels:S:1 n_minim_iter=3 pbc="T T T"
P        2.99762751      10.29519591      12.16528887       0.00000000 NULL
P        0.39370954       1.58886701      12.16528887       0.00000000 NULL
P        2.08937807       4.35316445       5.98747551       0.00000000 NULL
P        1.30195898       7.53089846       5.98747551       0.00000000 NULL
P        2.21954494       2.14980711      10.84276374       0.00000000 NULL
P        1.17179211       9.73425580      10.84276374       0.00000000 NULL
P        2.86746064       8.09183857       4.66495038       0.00000000 NULL
P        0.52387641       3.79222434       4.66495038       0.00000000 NULL
P        3.03663785       0.98483941       7.46892435       0.00000000 NULL
P        0.35469920      10.89922350       7.46892435       0.00000000 NULL
P        2.05036773       6.92687087       1.29111098       0.00000000 NULL
P        1.34096933       4.95719204       1.29111098       0.00000000 NULL
P        0.97592091       5.01153580       7.69442358       0.00000000 NULL
P        2.41541615       6.87252712       7.69442358       0.00000000 NULL
P        0.71974762      10.95356725       1.51661022       0.00000000 NULL
P        2.67158944       0.93049566       1.51661022       0.00000000 NULL
P        2.57899690       3.91387376       9.01508636       0.00000000 NULL
P        0.81234016       7.97018915       9.01508636       0.00000000 NULL
P        2.50800869       9.85590522       2.83727300       0.00000000 NULL
P        0.88332837       2.02815770       2.83727300       0.00000000 NULL
20
Lattice="3.403303524520015 0.0 0.0 0.0 11.777515588926502 0.0 0.0 0.0 12.485274365317736" Properties=species:S:1:pos:R:3:initial_magmoms:R:1:castep_labels:S:1 n_minim_iter=4 pbc="T T T"
P        3.00637606      10.20102894      12.29022526       0.00000000 NULL
P        0.39692746       1.57648665      12.29022526       0.00000000 NULL
P        2.09857922       4.31227115       6.04758808       0.00000000 NULL
P        1.30472430       7.46524444       6.04758808       0.00000000 NULL
P        2.22600057       2.13059604      10.95579836       0.00000000 NULL
P        1.17730295       9.64691955      10.95579836       0.00000000 NULL
P        2.87895471       8.01935383       4.71316117       0.00000000 NULL
P        0.52434881       3.75816176       4.71316117       0.00000000 NULL
P        3.04852865       0.97590019       7.54712169       0.00000000 NULL
P        0.35477487      10.80161539       7.54712169       0.00000000 NULL
P        2.05642664       6.86465799       1.30448450       0.00000000 NULL
P        1.34687689       4.91285760       1.30448450       0.00000000 NULL
P        0.98009827       4.96504505       7.77991926       0.00000000 NULL
P        2.42320525       6.81247054       7.77991926       0.00000000 NULL
P        0.72155349      10.85380284       1.53728208       0.00000000 NULL
P        2.68175004       0.92371275       1.53728208       0.00000000 NULL
P        2.58761136       3.87966992       9.10855033       0.00000000 NULL
P        0.81569217       7.89784567       9.10855033       0.00000000 NULL
P        2.51734393       9.76842772       2.86591315       0.00000000 NULL
P        0.88595960       2.00908787       2.86591315       0.00000000 NULL
20
Lattice="3.4002860795193275 0.0 0.0 0.0 11.572036378901936 0.0 0.0 0.0 12.650113492585735" Properties=species:S:1:pos:R:3:initial_magmoms:R:1:castep_labels:S:1 n_minim_iter=5 pbc="T T T"
P        3.00070914      10.01945977      12.44702105       0.00000000 NULL
P        0.39957694       1.55257661      12.44702105       0.00000000 NULL
P        2.09971998       4.23344158       6.12196430       0.00000000 NULL
P        1.30056610       7.33859480       6.12196430       0.00000000 NULL
P        2.22151887       2.09323637      11.09946770       0.00000000 NULL
P        1.17876721       9.47880001      11.09946770       0.00000000 NULL
P        2.87891025       7.87925456       4.77441096       0.00000000 NULL
P        0.52137583       3.69278182       4.77441096       0.00000000 NULL
P        3.04796791       0.95938059       7.64632455       0.00000000 NULL
P        0.35231817      10.61265579       7.64632455       0.00000000 NULL
P        2.05246121       6.74539878       1.32126781       0.00000000 NULL
P        1.34782487       4.82663760       1.32126781       0.00000000 NULL
P        0.98124605       4.87481857       7.89174155       0.00000000 NULL
P        2.41904003       6.69721781       7.89174155       0.00000000 NULL
P        0.71889699      10.66083676       1.56668481       0.00000000 NULL
P        2.68138909       0.91119962       1.56668481       0.00000000 NULL
P        2.58428448       3.81376331       9.22658532       0.00000000 NULL
P        0.81600160       7.75827307       9.22658532       0.00000000 NULL
P        2.51614464       9.59978150       2.90152857       0.00000000 NULL
P        0.88414144       1.97225488       2.90152857       0.00000000 NULL
20
Lattice="3.3837777906129403 0.0 0.0 0.0 11.361308965524906 0.0 0.0 0.0 12.748243851335278" Properties=species:S:1:pos:R:3:initial_magmoms:R:1:castep_labels:S:1 n_minim_iter=6 pbc="T T T"
P        2.98189763       9.83107717      12.53399230       0.00000000 NULL
P        0.40188016       1.53023180      12.53399230       0.00000000 NULL
P        2.09376906       4.15042269       6.15987037       0.00000000 NULL
P        1.29000873       7.21088628       6.15987037       0.00000000 NULL
P        2.20662142       2.05408701      11.18480962       0.00000000 NULL
P        1.17715637       9.30722195      11.18480962       0.00000000 NULL
P        2.86904527       7.73474150       4.81068770       0.00000000 NULL
P        0.51473253       3.62656747       4.81068770       0.00000000 NULL
P        3.03593076       0.94567021       7.70432115       0.00000000 NULL
P        0.34784703      10.41563876       7.70432115       0.00000000 NULL
P        2.03973592       6.62632469       1.33019922       0.00000000 NULL
P        1.34404187       4.73498427       1.33019922       0.00000000 NULL
P        0.98050000       4.77850698       7.96789343       0.00000000 NULL
P        2.40327779       6.58280199       7.96789343       0.00000000 NULL
P        0.71138890      10.45916146       1.59377150       0.00000000 NULL
P        2.67238889       0.90214751       1.59377150       0.00000000 NULL
P        2.56993363       3.74740119       9.29488629       0.00000000 NULL
P        0.81384416       7.61390778       9.29488629       0.00000000 NULL
P        2.50573305       9.42805567       2.92076436       0.00000000 NULL
P        0.87804474       1.93325330       2.92076436       0.00000000 NULL
20
Lattice="3.4068844813090204 0.0 0.0 0.0 11.389831079719684 0.0 0.0 0.0 12.84956832674526" Properties=species:S:1:pos:R:3:initial_magmoms:R:1:castep_labels:S:1 n_minim_iter=7 pbc="T T T"
P        2.99933586       9.85144313      12.62643289       0.00000000 NULL
P        0.40754862       1.53838795      12.62643289       0.00000000 NULL
P        2.11099086       4.15652759       6.20164872       0.00000000 NULL
P        1.29589362       7.23330349       6.20164872       0.00000000 NULL
P        2.21843287       2.05804784      11.27334867       0.00000000 NULL
P        1.18845161       9.33178324      11.27334867       0.00000000 NULL
P        2.89189385       7.75296338       4.84856451       0.00000000 NULL
P        0.51499063       3.63686770       4.84856451       0.00000000 NULL
P        3.05782834       0.95336669       7.76444817       0.00000000 NULL
P        0.34905614      10.43646439       7.76444817       0.00000000 NULL
P        2.05249838       6.64828223       1.33966401       0.00000000 NULL
P        1.35438610       4.74154885       1.33966401       0.00000000 NULL
P        0.99017704       4.78367049       8.04201813       0.00000000 NULL
P        2.41670744       6.60616059       8.04201813       0.00000000 NULL
P        0.71326520      10.47858603       1.61723397       0.00000000 NULL
P        2.69361928       0.91124505       1.61723397       0.00000000 NULL
P        2.58641667       3.75900940       9.36661596       0.00000000 NULL
P        0.82046781       7.63082168       9.36661596       0.00000000 NULL
P        2.52391005       9.45392494       2.94183180       0.00000000 NULL
P        0.88297443       1.93590614       2.94183180       0.00000000 NULL
20
Lattice="3.3854223819488025 0.0 0.0 0.0 11.3391693422662 0.0 0.0 0.0 12.78862833979976" Properties=species:S:1:pos:R:3:initial_magmoms:R:1:castep_labels:S:1 n_minim_iter=8 pbc="T T T"
P        2.97973059       9.80607307      12.56392486       0.00000000 NULL
P        0.40569179       1.53309627      12.56392486       0.00000000 NULL
P        2.09840298       4.13648840       6.16961069       0.00000000 NULL
P        1.28701940       7.20268094       6.16961069       0.00000000 NULL
P        2.20336956       2.04831539      11.22006754       0.00000000 NULL
P        1.18205282       9.29085395      11.22006754       0.00000000 NULL
P        2.87476401       7.71790006       4.82575338       0.00000000 NULL
P        0.51065837       3.62126928       4.82575338       0.00000000 NULL
P        3.03927554       0.95070430       7.72727912       0.00000000 NULL
P        0.34614684      10.38846505       7.72727912       0.00000000 NULL
P        2.03885803       6.62028897       1.33296495       0.00000000 NULL
P        1.34656435       4.71888037       1.33296495       0.00000000 NULL
P        0.98554476       4.75971270       8.00759892       0.00000000 NULL
P        2.39987762       6.57945665       8.00759892       0.00000000 NULL
P        0.70716643      10.42929737       1.61328475       0.00000000 NULL
P        2.67825596       0.90987197       1.61328475       0.00000000 NULL
P        2.56967496       3.74319937       9.32126185       0.00000000 NULL
P        0.81574742       7.59596997       9.32126185       0.00000000 NULL
P        2.50845861       9.41278404       2.92694768       0.00000000 NULL
P        0.87696377       1.92638530       2.92694768       0.00000000 NULL
20
Lattice="3.388920593500192 0.0 0.0 0.0 11.336836100390878 0.0 0.0 0.0 12.804095444539115" Properties=species:S:1:pos:R:3:initial_magmoms:R:1:castep_labels:S:1 n_minim_iter=9 pbc="T T T"
P        2.98203578       9.80274282      12.57698349       0.00000000 NULL
P        0.40688481       1.53409328      12.57698349       0.00000000 NULL
P        2.10134511       4.13432477       6.17493577       0.00000000 NULL
P        1.28757549       7.20251133       6.17493577       0.00000000 NULL
P        2.20460536       2.04745094      11.23356038       0.00000000 NULL
P        1.18431523       9.28938516      11.23356038       0.00000000 NULL
P        2.87877553       7.71586899       4.83151266       0.00000000 NULL
P        0.51014506       3.62096711       4.83151266       0.00000000 NULL
P        3.04292751       0.95207585       7.73626025       0.00000000 NULL
P        0.34599309      10.38476025       7.73626025       0.00000000 NULL
P        2.04045338       6.62049391       1.33421252       0.00000000 NULL
P        1.34846721       4.71634220       1.33421252       0.00000000 NULL
P        0.98770616       4.75641830       8.02051233       0.00000000 NULL
P        2.40121443       6.58041780       8.02051233       0.00000000 NULL
P        0.70675413      10.42483636       1.61846461       0.00000000 NULL
P        2.68216646       0.91199975       1.61846461       0.00000000 NULL
P        2.57206378       3.74313258       9.33188515       0.00000000 NULL
P        0.81685681       7.59370352       9.33188515       0.00000000 NULL
P        2.51131711       9.41155063       2.92983742       0.00000000 NULL
P        0.87760348       1.92528547       2.92983742       0.00000000 NULL
20
Lattice="3.388596563420453 0.0 0.0 0.0 11.319775782316372 0.0 0.0 0.0 12.811856088363532" Properties=species:S:1:pos:R:3:initial_magmoms:R:1:castep_labels:S:1 n_minim_iter=10 pbc="T T T"
P        2.98042574       9.78557931      12.58067386       0.00000000 NULL
P        0.40817082       1.53419647      12.58067386       0.00000000 NULL
P        2.10246910       4.12569142       6.17474582       0.00000000 NULL
P        1.28612746       7.19408437       6.17474582       0.00000000 NULL
P        2.20249155       2.04350904      11.24029392       0.00000000 NULL
P        1.18610501       9.27626674      11.24029392       0.00000000 NULL
P        2.88040330       7.70339693       4.83436587       0.00000000 NULL
P        0.50819327       3.61637885       4.83436587       0.00000000 NULL
P        3.04367132       0.95345866       7.74027753       0.00000000 NULL
P        0.34492524      10.36631712       7.74027753       0.00000000 NULL
P        2.03922352       6.61334655       1.33434949       0.00000000 NULL
P        1.34937304       4.70642923       1.33434949       0.00000000 NULL
P        0.98987045       4.74491404       8.03126163       0.00000000 NULL
P        2.39872612       6.57486175       8.03126163       0.00000000 NULL
P        0.70442784      10.40480193       1.62533359       0.00000000 NULL
P        2.68416873       0.91497385       1.62533359       0.00000000 NULL
P        2.57133831       3.73881225       9.33633277       0.00000000 NULL
P        0.81725825       7.58096354       9.33633277       0.00000000 NULL
P        2.51155653       9.39870014       2.93040473       0.00000000 NULL
P        0.87704003       1.92107565       2.93040473       0.00000000 NULL
20
Lattice="3.397504362580723 0.0 0.0 0.0 11.078196766252816 0.0 0.0 0.0 12.943321459270338" Properties=species:S:1:pos:R:3:initial_magmoms:R:1:castep_labels:S:1 n_minim_iter=11 pbc="T T T"
P        2.96900567       9.54077975      12.64997319       0.00000000 NULL
P        0.42849870       1.53741701      12.64997319       0.00000000 NULL
P        2.12725088       4.00168137       6.17831246       0.00000000 NULL
P        1.27025349       7.07651539       6.17831246       0.00000000 NULL
P        2.17859826       1.98628003      11.35409020       0.00000000 NULL
P        1.21890610       9.09191673      11.35409020       0.00000000 NULL
P        2.91765828       7.52537841       4.88242947       0.00000000 NULL
P        0.47984608       3.55281835       4.88242947       0.00000000 NULL
P        3.06899373       0.97533338       7.80893586       0.00000000 NULL
P        0.32851063      10.10286339       7.80893586       0.00000000 NULL
P        2.02726281       6.51443176       1.33727513       0.00000000 NULL
P        1.37024155       4.56376501       1.33727513       0.00000000 NULL
P        1.02880340       4.57643152       8.20334988       0.00000000 NULL
P        2.36870097       6.50176525       8.20334988       0.00000000 NULL
P        0.66994878      10.11552990       1.73168915       0.00000000 NULL
P        2.72755558       0.96266687       1.73168915       0.00000000 NULL
P        2.57207093       3.67841834       9.41456053       0.00000000 NULL
P        0.82543344       7.39977843       9.41456053       0.00000000 NULL
P        2.52418562       9.21751672       2.94289980       0.00000000 NULL
P        0.87331875       1.86068005       2.94289980       0.00000000 NULL
20
Lattice="3.701315613338061 0.0 0.0 0.0 11.310647327836403 0.0 0.0 0.0 13.739828780440261" Properties=species:S:1:pos:R:3:initial_magmoms:R:1:castep_labels:S:1 n_minim_iter=12 pbc="T T T"
P        3.24007077       9.72837552      13.41622495       0.00000000 NULL
P        0.46124484       1.58227181      13.41622495       0.00000000 NULL
P        2.31190265       4.07305186       6.54631056       0.00000000 NULL
P        1.38941296       7.23759547       6.54631056       0.00000000 NULL
P        2.36339663       2.01665198      12.04422274       0.00000000 NULL
P        1.33791899       9.29399535      12.04422274       0.00000000 NULL
P        3.18857679       7.67197564       5.17430835       0.00000000 NULL
P        0.51273882       3.63867168       5.17430835       0.00000000 NULL
P        3.36711527       1.00831367       8.28218117       0.00000000 NULL
P        0.33420034      10.30233366       8.28218117       0.00000000 NULL
P        2.18485815       6.66363733       1.41226678       0.00000000 NULL
P        1.51645747       4.64700999       1.41226678       0.00000000 NULL
P        1.13117421       4.63775895       8.71245488       0.00000000 NULL
P        2.57014140       6.67288837       8.71245488       0.00000000 NULL
P        0.71948359      10.29308262       1.84254049       0.00000000 NULL
P        2.98183202       1.01756471       1.84254049       0.00000000 NULL
P        2.83195573       3.74971929      10.01770986       0.00000000 NULL
P        0.86935988       7.56092803      10.01770986       0.00000000 NULL
P        2.72001769       9.40504296       3.14779547       0.00000000 NULL
P        0.98129792       1.90560437       3.14779547       0.00000000 NULL
20
Lattice="3.4141281224159905 0.0 0.0 0.0 10.91704195198879 0.0 0.0 0.0 13.030153247115875" Properties=species:S:1:pos:R:3:initial_magmoms:R:1:castep_labels:S:1 n_minim_iter=13 pbc="T T T"
P        2.99028390       9.38894695      12.72136003       0.00000000 NULL
P        0.42384422       1.52809500      12.72136003       0.00000000 NULL
P        2.13090828       3.93042597       6.20628341       0.00000000 NULL
P        1.28321984       6.98661598       6.20628341       0.00000000 NULL
P        2.18043043       1.94579583      11.42418713       0.00000000 NULL
P        1.23369769       8.97124612      11.42418713       0.00000000 NULL
P        2.94076175       7.40431681       4.90911051       0.00000000 NULL
P        0.47336637       3.51272514       4.90911051       0.00000000 NULL
P        3.10703161       0.97218549       7.85439449       0.00000000 NULL
P        0.30709651       9.94485646       7.85439449       0.00000000 NULL
P        2.01416057       6.43070647       1.33931787       0.00000000 NULL
P        1.39996755       4.48633548       1.33931787       0.00000000 NULL
P        1.04729056       4.47509445       8.26374773       0.00000000 NULL
P        2.36683756       6.44194750       8.26374773       0.00000000 NULL
P        0.65977350       9.93361543       1.74867111       0.00000000 NULL
P        2.75435462       0.98342653       1.74867111       0.00000000 NULL
P        2.61142601       3.62014823       9.49883335       0.00000000 NULL
P        0.80270211       7.29689373       9.49883335       0.00000000 NULL
P        2.50976617       9.07866920       2.98375672       0.00000000 NULL
P        0.90436195       1.83837275       2.98375672       0.00000000 NULL
