5
Lattice="2.9465199999999983 -1.1767090715091589e-15 1.6186333228780006e-16 -0.4217444457554351 3.9755623702030434 1.858957844704766e-15 -0.4107365472082654 -0.5022424015256509 9.571395099383217" Properties=species:S:1:pos:R:3:initial_magmoms:R:1:castep_labels:S:1 n_minim_iter=1 pbc="T T T"
P        0.03797288       1.07647053       1.52281087       0.00000000 NULL
P        1.77531234       1.38988558       9.18883409       0.00000000 NULL
P        1.50393543       1.77241493       2.72362662       0.00000000 NULL
P        0.96693680       1.48569046       6.85817642       0.00000000 NULL
P        0.29238245       0.01679175       8.88216947       0.00000000 NULL
5
Lattice="2.9504990022070436 0.0002578234840238871 -0.00024285664578870377 -0.42196610681296387 3.9779267492747903 0.001234113997134227 -0.4121240444670646 -0.49969418939041044 9.575715781416761" Properties=species:S:1:pos:R:3:initial_magmoms:R:1:castep_labels:S:1 n_minim_iter=2 pbc="T T T"
P        0.03795867       1.07736218       1.52373051       0.00000000 NULL
P        1.77703437       1.39399587       9.19327328       0.00000000 NULL
P        1.50589585       1.77461584       2.72558485       0.00000000 NULL
P        0.96780861       1.48870305       6.86182023       0.00000000 NULL
P        0.29212027       0.01924629       8.88609243       0.00000000 NULL
5
Lattice="3.1577681634589374 0.014046569476033938 -0.013160584507232231 -0.43302885128313534 4.098788299644087 0.0653247078469575 -0.48532870273668044 -0.3672840378193244 9.79436445834882" Properties=species:S:1:pos:R:3:initial_magmoms:R:1:castep_labels:S:1 n_minim_iter=3 pbc="T T T"
P        0.03708313       1.12306492       1.57057735       0.00000000 NULL
P        1.86606739       1.60679849       9.41825290       0.00000000 NULL
P        1.60795947       1.88846878       2.82540637       0.00000000 NULL
P        1.01276117       1.64454307       7.04684956       0.00000000 NULL
P        0.27783686       0.14663058       9.08420325       0.00000000 NULL
5
Lattice="3.2370480686461707 0.028089474711960098 -0.030433489458634548 -0.42542917914395323 4.112731137719973 0.0983419158347149 -0.5548825814728375 -0.2977183745585119 9.722593314736674" Properties=species:S:1:pos:R:3:initial_magmoms:R:1:castep_labels:S:1 n_minim_iter=4 pbc="T T T"
P        0.03111727       1.13465097       1.57117677       0.00000000 NULL
P        1.86432087       1.69694919       9.34384459       0.00000000 NULL
P        1.64084907       1.92651966       2.81215018       0.00000000 NULL
P        1.00598237       1.70468096       7.01056604       0.00000000 NULL
P        0.23890706       0.21571555       9.01048402       0.00000000 NULL
5
Lattice="3.2988811315140847 0.04352442446562109 -0.04912166251801485 -0.41345408493178437 4.089012895428999 0.12961910516320843 -0.6268390158477547 -0.22829101245373176 9.568349024046986" Properties=species:S:1:pos:R:3:initial_magmoms:R:1:castep_labels:S:1 n_minim_iter=5 pbc="T T T"
P        0.02288516       1.13513656       1.56277928       0.00000000 NULL
P        1.84705862       1.76921458       9.18431655       0.00000000 NULL
P        1.66475004       1.94636936       2.77094300       0.00000000 NULL
P        0.99045481       1.74636449       6.91742676       0.00000000 NULL
P        0.19709694       0.28424782       8.85793977       0.00000000 NULL
5
Lattice="3.3568735223642254 0.06789638415778824 -0.06687707378223291 -0.3888710930962768 4.015236918626901 0.1683813698005637 -0.6967534512867375 -0.13560495165749598 9.374401295730443" Properties=species:S:1:pos:R:3:initial_magmoms:R:1:castep_labels:S:1 n_minim_iter=6 pbc="T T T"
P        0.01475644       1.12198016       1.56071654       0.00000000 NULL
P        1.83188014       1.84937027       8.98076221       0.00000000 NULL
P        1.69342505       1.95475662       2.72082675       0.00000000 NULL
P        0.97820256       1.78221173       6.80762359       0.00000000 NULL
P        0.16573456       0.37517939       8.66341683       0.00000000 NULL
5
Lattice="3.394068644280366 0.09327279323866652 -0.0708452817852154 -0.3599560811650869 3.9377933306103015 0.20495720560789354 -0.719154042906948 -0.043126600739045236 9.415392973803211" Properties=species:S:1:pos:R:3:initial_magmoms:R:1:castep_labels:S:1 n_minim_iter=7 pbc="T T T"
P        0.01560561       1.10613917       1.60442618       0.00000000 NULL
P        1.84799004       1.93172165       9.00885631       0.00000000 NULL
P        1.72276637       1.96255782       2.74675715       0.00000000 NULL
P        0.98712788       1.81524528       6.87084297       0.00000000 NULL
P        0.17843387       0.46490751       8.68543140       0.00000000 NULL
5
Lattice="3.3647822917051124 0.12027290594823864 -0.09081846384851841 -0.3193346061320091 3.8465119812050808 0.2605671030292992 -0.7845541905493995 0.09115447465798494 9.41088418714761" Properties=species:S:1:pos:R:3:initial_magmoms:R:1:castep_labels:S:1 n_minim_iter=8 pbc="T T T"
P        0.00671507       1.09812524       1.65248620       0.00000000 NULL
P        1.77978826       2.04950343       8.98938790       0.00000000 NULL
P        1.69907541       1.97320537       2.75540248       0.00000000 NULL
P        0.93321367       1.87038292       6.90594524       0.00000000 NULL
P        0.14248427       0.59217584       8.65633276       0.00000000 NULL
5
Lattice="3.4128180466691727 0.13505521745108948 -0.10074340423621364 -0.3062652264903996 3.868257168749077 0.2862043057037708 -0.8260098295928177 0.1443823362135477 9.549614845958942" Properties=species:S:1:pos:R:3:initial_magmoms:R:1:castep_labels:S:1 n_minim_iter=9 pbc="T T T"
P        0.00281445       1.11180958       1.69318553       0.00000000 NULL
P        1.78714571       2.12839370       9.12065103       0.00000000 NULL
P        1.72133843       2.00914959       2.80158116       0.00000000 NULL
P        0.92853007       1.92224169       7.01615309       0.00000000 NULL
P        0.12658638       0.64693616       8.77552882       0.00000000 NULL
5
Lattice="3.392739632217317 0.13809563604641914 -0.10637510517385397 -0.2992890873391633 3.8534626690602605 0.2969007691579587 -0.8420230666546114 0.16958421823983508 9.533100624264069" Properties=species:S:1:pos:R:3:initial_magmoms:R:1:castep_labels:S:1 n_minim_iter=10 pbc="T T T"
P       -0.00240078       1.11229438       1.70057585       0.00000000 NULL
P        1.76043941       2.14936193       9.10198554       0.00000000 NULL
P        1.70671153       2.01011155       2.79636694       0.00000000 NULL
P        0.90752904       1.93268784       7.01001715       0.00000000 NULL
P        0.11311069       0.67064352       8.75476691       0.00000000 NULL
5
Lattice="3.390522683818245 0.14347448546281646 -0.11348351864280985 -0.2917144104292296 3.8502408513122997 0.3106371979190888 -0.8657216461174075 0.1997658550338381 9.557276166109789" Properties=species:S:1:pos:R:3:initial_magmoms:R:1:castep_labels:S:1 n_minim_iter=11 pbc="T T T"
P       -0.00787055       1.11654476       1.71599000       0.00000000 NULL
P        1.74148565       2.18325995       9.12246224       0.00000000 NULL
P        1.70111307       2.02007131       2.80395635       0.00000000 NULL
P        0.88977286       1.95308780       7.03325066       0.00000000 NULL
P        0.09754058       0.70029021       8.77094988       0.00000000 NULL
