6
Lattice="2.7450399999999995 -6.57200155308876e-16 -4.603408282376812e-16 1.2099967881691587 6.599766755387668 1.008914796827169e-15 1.0437127364752379 0.05930754739212345 7.290116949311696" Properties=species:S:1:pos:R:3:initial_magmoms:R:1:castep_labels:S:1 n_minim_iter=1 pbc="T T T"
P        3.66925183       5.20878076       5.14987567       0.00000000 NULL
P        3.11099654       1.33860836       3.18561854       0.00000000 NULL
P        2.51132962       3.49030992       4.84641143       0.00000000 NULL
P        1.52454579       4.42201679       0.54112059       0.00000000 NULL
P        3.94962640       3.71921113       6.51971051       0.00000000 NULL
P        3.81696941       5.95846552       3.27590591       0.00000000 NULL
6
Lattice="2.748450562839998 0.00022694947207131184 -2.383950779164028e-05 1.2120457869681478 6.607511004798146 -0.00013401184209077484 1.044951084510753 0.0593261085685942 7.304263104060665" Properties=species:S:1:pos:R:3:initial_magmoms:R:1:castep_labels:S:1 n_minim_iter=2 pbc="T T T"
P        3.67424637       5.21531469       5.15985929       0.00000000 NULL
P        3.11496191       1.34050931       3.19173328       0.00000000 NULL
P        2.51464544       3.49431517       4.85546257       0.00000000 NULL
P        1.52681788       4.42748203       0.54251733       0.00000000 NULL
P        3.95475328       3.72327991       6.53233545       0.00000000 NULL
P        3.82217407       5.96554486       3.28179138       0.00000000 NULL
6
Lattice="2.882392719243999 0.0091980601455304 -0.0009192598936776313 1.292655474634227 6.9106302104313455 -0.005011045720998775 1.0936940790861824 0.06047427037639385 7.869465401891894" Properties=species:S:1:pos:R:3:initial_magmoms:R:1:castep_labels:S:1 n_minim_iter=3 pbc="T T T"
P        3.87070495       5.47180399       5.55934037       0.00000000 NULL
P        3.27078851       1.41528201       3.43616972       0.00000000 NULL
P        2.64492085       3.65126226       5.21693505       0.00000000 NULL
P        1.61619717       4.64165717       0.59932365       0.00000000 NULL
P        4.15617373       3.88251733       7.03725958       0.00000000 NULL
P        4.02675565       6.24281902       3.51684317       0.00000000 NULL
6
Lattice="2.9024169205975814 0.00584613867791597 -0.0022618789941088488 1.2934231572380714 6.956338085934946 -0.004961270222763607 1.0976695655959088 0.06033253891288746 8.086304893998538" Properties=species:S:1:pos:R:3:initial_magmoms:R:1:castep_labels:S:1 n_minim_iter=4 pbc="T T T"
P        3.89068813       5.51062698       5.71315314       0.00000000 NULL
P        3.28941591       1.42081579       3.53038736       0.00000000 NULL
P        2.65557994       3.67293574       5.35529121       0.00000000 NULL
P        1.62174586       4.67320245       0.62030748       0.00000000 NULL
P        4.17645653       3.89892429       7.23573744       0.00000000 NULL
P        4.04623269       6.28100340       3.60542654       0.00000000 NULL
6
Lattice="2.8869510541864134 -0.00021615384634353143 -0.0031989966870210195 1.2720306218481234 6.944936868371163 -0.0031241061140834174 1.0891694493747406 0.060434726559219575 8.241476573751395" Properties=species:S:1:pos:R:3:initial_magmoms:R:1:castep_labels:S:1 n_minim_iter=5 pbc="T T T"
P        3.85987413       5.50230614       5.82392119       0.00000000 NULL
P        3.26617898       1.41111530       3.59914994       0.00000000 NULL
P        2.63069891       3.66539528       5.45474726       0.00000000 NULL
P        1.60332407       4.66412568       0.63457117       0.00000000 NULL
P        4.14278865       3.88360858       7.38307653       0.00000000 NULL
P        4.01122194       6.26601283       3.66840655       0.00000000 NULL
6
Lattice="2.8416929608705392 -0.00495743347090291 -0.0026748030997621524 1.2406819029970217 6.91939782856311 0.007858655519115347 1.0732512079162562 0.0702976391790527 8.397508585658478" Properties=species:S:1:pos:R:3:initial_magmoms:R:1:castep_labels:S:1 n_minim_iter=6 pbc="T T T"
P        3.79710760       5.49223224       5.94231159       0.00000000 NULL
P        3.21060123       1.40374548       3.67241675       0.00000000 NULL
P        2.58140633       3.65858319       5.55952593       0.00000000 NULL
P        1.57099858       4.64562279       0.65309639       0.00000000 NULL
P        4.07078957       3.87059432       7.54241931       0.00000000 NULL
P        3.93960648       6.24224302       3.73939363       0.00000000 NULL
6
Lattice="2.76751054688177 -0.005566321856285014 -0.0011045209203013027 1.2065188292390345 6.944562409537895 0.05992145159034885 1.0492028511536466 0.12703878394536802 8.635369628877857" Properties=species:S:1:pos:R:3:initial_magmoms:R:1:castep_labels:S:1 n_minim_iter=7 pbc="T T T"
P        3.71162498       5.56376798       6.14877900       0.00000000 NULL
P        3.12342227       1.43283152       3.79247821       0.00000000 NULL
P        2.50960414       3.71151306       5.73609089       0.00000000 NULL
P        1.52961735       4.66510428       0.70363548       0.00000000 NULL
P        3.96360084       3.92974967       7.81058897       0.00000000 NULL
P        3.83855741       6.28201106       3.88004742       0.00000000 NULL
