2
Lattice="2.00189 -7.991780619984314e-16 -4.2132744889373297e-16 -0.7595409804287647 4.169208630897392 -1.308308602755617e-15 -0.2615725456882919 -2.115469173914639 5.113866099778041" Properties=species:S:1:pos:R:3:initial_magmoms:R:1:castep_labels:S:1 n_minim_iter=1 pbc="T T T"
P        1.43866126      -0.59527115       1.71594243       0.00000000 NULL
P       -0.06210249       2.02138668       2.83328433       0.00000000 NULL
2
Lattice="2.0056239904814004 6.189741831511874e-05 -8.321243807540838e-05 -0.7608287912178079 4.170208542160864 -0.0007525488523435819 -0.2623384163117233 -2.1169583221550705 5.114846566881996" Properties=species:S:1:pos:R:3:initial_magmoms:R:1:castep_labels:S:1 n_minim_iter=2 pbc="T T T"
P        1.44129604      -0.59551682       1.71604972       0.00000000 NULL
P       -0.06231467       2.02116938       2.83336021       0.00000000 NULL
2
Lattice="2.285175088445543 0.004495474889267322 -0.0062645266608339035 -0.8576602882381145 4.24079899203258 -0.05402240493687193 -0.31934075014137325 -2.222425334751596 5.184298090016341" Properties=species:S:1:pos:R:3:initial_magmoms:R:1:castep_labels:S:1 n_minim_iter=3 pbc="T T T"
P        1.63887448      -0.61266482       1.72328575       0.00000000 NULL
P       -0.07855393       2.00540317       2.83881123       0.00000000 NULL
2
Lattice="2.447184625174579 -0.012560167991388291 -0.0005632919735692533 -0.9546493415175236 4.241098246334561 -0.08216168281243541 -0.3079221454221289 -2.248927004598113 5.195247953665912" Properties=species:S:1:pos:R:3:initial_magmoms:R:1:castep_labels:S:1 n_minim_iter=4 pbc="T T T"
P        1.76210291      -0.62791852       1.72615156       0.00000000 NULL
P       -0.08957412       1.97847391       2.82965882       0.00000000 NULL
2
Lattice="2.4923390920040527 -0.04263650682518651 0.007994046907215203 -1.0344195583916078 4.193552674510462 -0.1002008956735325 -0.26017952018493584 -2.2332263627480917 5.184450151458225" Properties=species:S:1:pos:R:3:initial_magmoms:R:1:castep_labels:S:1 n_minim_iter=5 pbc="T T T"
P        1.80664101      -0.64275635       1.72656091       0.00000000 NULL
P       -0.10504232       1.93632285       2.81478594       0.00000000 NULL
2
Lattice="2.5046372991386012 -0.05969725262199264 0.01170796341521088 -1.0746169723005075 4.162496383058565 -0.11568230769312053 -0.2342704641442942 -2.2292154603652454 5.1865567902244925" Properties=species:S:1:pos:R:3:initial_magmoms:R:1:castep_labels:S:1 n_minim_iter=6 pbc="T T T"
P        1.82200460      -0.65175525       1.72769322       0.00000000 NULL
P       -0.11566337       1.90539805       2.80734766       0.00000000 NULL
2
Lattice="2.5179705253714584 -0.08564042722521457 0.016682066947890414 -1.13370595281083 4.114057345502784 -0.14349179492492495 -0.1958910928245961 -2.2280487984009145 5.197628879752526" Properties=species:S:1:pos:R:3:initial_magmoms:R:1:castep_labels:S:1 n_minim_iter=7 pbc="T T T"
P        1.84123695      -0.66624745       1.73060166       0.00000000 NULL
P       -0.13290544       1.85382997       2.79771960       0.00000000 NULL
2
Lattice="2.5201164797396456 -0.11320876609636508 0.0211768423428758 -1.191934974708075 4.060739672722413 -0.1785015273759333 -0.15555704458544978 -2.2329362282517344 5.220805817769202" Properties=species:S:1:pos:R:3:initial_magmoms:R:1:castep_labels:S:1 n_minim_iter=8 pbc="T T T"
P        1.85264876      -0.68267329       1.73548829       0.00000000 NULL
P       -0.15226666       1.79314334       2.79063912       0.00000000 NULL
2
Lattice="2.51596506113643 -0.14296369122270297 0.026017261299285315 -1.2523285618144469 4.006185360452825 -0.22031429578059963 -0.11120656657763238 -2.244673137443138 5.256927990511557" Properties=species:S:1:pos:R:3:initial_magmoms:R:1:castep_labels:S:1 n_minim_iter=9 pbc="T T T"
P        1.86007295      -0.70180482       1.74306583       0.00000000 NULL
P       -0.17274275       1.72567204       2.78736775       0.00000000 NULL
2
Lattice="2.5076185397896382 -0.1747882124476171 0.03187756904090581 -1.3154406926299147 3.9546002374516562 -0.2666916676676936 -0.06151560276026243 -2.262371989859464 5.304205189218299" Properties=species:S:1:pos:R:3:initial_magmoms:R:1:castep_labels:S:1 n_minim_iter=10 pbc="T T T"
P        1.86515524      -0.72364300       1.75338923       0.00000000 NULL
P       -0.19291830       1.65567288       2.78877903       0.00000000 NULL
2
Lattice="2.4972134592569084 -0.20798251773821488 0.03923719044353981 -1.3806245434134174 3.910696178552113 -0.314156678861343 -0.0062781364694460785 -2.2841618812776328 5.358832653904469" Properties=species:S:1:pos:R:3:initial_magmoms:R:1:castep_labels:S:1 n_minim_iter=11 pbc="T T T"
P        1.86942399      -0.74757699       1.76598162       0.00000000 NULL
P       -0.21126451       1.58871116       2.79525363       0.00000000 NULL
2
Lattice="2.460632747383875 -0.3519348088879581 0.08336076699992157 -1.6665456404457666 3.7747971891680456 -0.5176977910324246 0.263335681833284 -2.3978093524105732 5.6085020831244865" Properties=species:S:1:pos:R:3:initial_magmoms:R:1:castep_labels:S:1 n_minim_iter=12 pbc="T T T"
P        1.89686492      -0.85788004       1.82711121       0.00000000 NULL
P       -0.26613950       1.33103387       2.84348175       0.00000000 NULL
2
Lattice="2.4788215938525515 -0.41908966244590057 0.12142539788494487 -1.8133058367303332 3.8275875211939345 -0.43426021735733866 0.42916084964475965 -2.2828350849877315 5.652972203339895" Properties=species:S:1:pos:R:3:initial_magmoms:R:1:castep_labels:S:1 n_minim_iter=13 pbc="T T T"
P        1.94821590      -0.87699135       1.84154027       0.00000000 NULL
P       -0.26632279       1.42011085       2.97687306       0.00000000 NULL
2
Lattice="2.460352449493409 -0.4308559892022187 0.12917700010511654 -1.830803401058129 3.7198540815092187 -0.4518130030148981 0.4638095958109348 -2.2422906519393395 5.636307100634547" Properties=species:S:1:pos:R:3:initial_magmoms:R:1:castep_labels:S:1 n_minim_iter=14 pbc="T T T"
P        1.93972548      -0.87166816       1.83288509       0.00000000 NULL
P       -0.26129919       1.35237496       2.96534093       0.00000000 NULL
