20
Lattice="4.684957667906836 0.0 0.0 0.0 4.684957667906836 0.0 0.0 0.0 16.472680341109537" Properties=species:S:1:pos:R:3:initial_magmoms:R:1:castep_labels:S:1:forces:R:3 n_minim_iter=16 energy=-108.857742566639 stress="-7.426233910808898e-05 0.0 0.0 0.0 -7.426233910808898e-05 0.0 0.0 0.0 0.0003070892927810473" free_energy=-108.857742566639 pbc="T T T"
P       -0.19779637       2.41809579       8.09808123       0.00000000 NULL       0.00205200       0.00605200      -0.00059400
P        4.88275404       2.26686187      16.33442141       0.00000000 NULL      -0.00205200      -0.00605200      -0.00059700
P        2.41809579       4.88275404      12.21625132       0.00000000 NULL       0.00605200      -0.00205200      -0.00059400
P        2.26686187      -0.19779637       3.97991115       0.00000000 NULL      -0.00605200       0.00205200      -0.00059400
P        5.81401036       0.81815972       1.23100949       0.00000000 NULL       0.00120700       0.00366200      -0.00026900
P       -1.12905269       3.86679795       9.46734966       0.00000000 NULL      -0.00120700      -0.00366300      -0.00027200
P        0.81815972      -1.12905269       5.34917958       0.00000000 NULL       0.00366300      -0.00120700      -0.00027200
P        3.86679795       5.81401036      13.58551975       0.00000000 NULL      -0.00366300       0.00120700      -0.00027200
P        2.65412167       0.07232589      16.32564275       0.00000000 NULL       0.00246000       0.00260200       0.00099500
P        2.03083600       4.61263178       8.08930258       0.00000000 NULL      -0.00246000      -0.00260200       0.00099800
P        0.07232589       2.03083600       3.97113250       0.00000000 NULL       0.00260200      -0.00246000       0.00099800
P        4.61263178       2.65412167      12.20747267       0.00000000 NULL      -0.00260200       0.00246000       0.00099800
P        0.48091967       0.79003102       9.43566434       0.00000000 NULL      -0.00231200      -0.00048500       0.00144200
P        4.20403799       3.89492664       1.19932417       0.00000000 NULL       0.00231200       0.00048600       0.00144400
P        0.79003102       4.20403799      13.55383442       0.00000000 NULL      -0.00048500       0.00231200       0.00144200
P        3.89492664       0.48091967       5.31749425       0.00000000 NULL       0.00048500      -0.00231200       0.00144200
P        1.62496356       1.88437177      11.06904546       0.00000000 NULL       0.00206600      -0.00221600      -0.00157300
P        3.05999411       2.80058590       2.83270529       0.00000000 NULL      -0.00206600       0.00221600      -0.00157300
P        1.88437177       3.05999411      15.18721554       0.00000000 NULL      -0.00221600      -0.00206600      -0.00157400
P        2.80058590       1.62496356       6.95087537       0.00000000 NULL       0.00221600       0.00206600      -0.00157300
