12
Lattice="3.016177991318674 0.0 0.0 0.0 10.340895815747121 0.0 0.0 0.0 14.716634829030678" Properties=species:S:1:pos:R:3:initial_magmoms:R:1:castep_labels:S:1:forces:R:3 n_minim_iter=16 energy=-62.53528188225 stress="1.559873447021911e-05 0.0 0.0 0.0 -9.128309696957831e-05 0.0 0.0 0.0 -1.7559469249995254e-05" free_energy=-62.53528188225 pbc="T T T"
P        1.45649508       1.43857871       6.27556836       0.00000000 NULL      -0.00010800       0.00087700      -0.00077400
P        1.55968291       8.90231710      13.63388578       0.00000000 NULL       0.00010800      -0.00087800      -0.00077400
P        1.55968291       6.60902662       6.27556836       0.00000000 NULL       0.00010800       0.00087800      -0.00077400
P        1.45649508       3.73186919      13.63388578       0.00000000 NULL      -0.00010800      -0.00087800      -0.00077400
P        2.96578961       2.01774730       4.63376045       0.00000000 NULL       0.00178100       0.00327400      -0.00278000
P        0.05038838       8.32314851      11.99207786       0.00000000 NULL      -0.00178100      -0.00327400      -0.00278000
P        0.05038838       7.18819521       4.63376045       0.00000000 NULL      -0.00178100       0.00327500      -0.00278000
P        2.96578961       3.15270061      11.99207786       0.00000000 NULL       0.00178100      -0.00327500      -0.00278000
P        1.45715517       1.67028228      12.91650685       0.00000000 NULL       0.00157700       0.00415200       0.00355400
P        1.55902283       8.67061353       5.55818944       0.00000000 NULL      -0.00157700      -0.00415200       0.00355400
P        1.55902283       6.84073019      12.91650685       0.00000000 NULL      -0.00157700       0.00415200       0.00355400
P        1.45715517       3.50016562       5.55818944       0.00000000 NULL       0.00157700      -0.00415200       0.00355400
