30
Lattice="5.215178977918721 0.0 0.0 0.0 11.525880359948612 4.980387202677256e-14 0.0 -5.7629401799743505 9.981705192695602" Properties=species:S:1:pos:R:3:initial_magmoms:R:1:castep_labels:S:1:forces:R:3 n_minim_iter=14 energy=-156.350414002756 stress="3.585026472297634e-05 -0.0 0.0 -0.0 7.6833900684761e-06 0.0 0.0 0.0 7.6833900684761e-06" free_energy=-156.350414002756 pbc="T T T"
P        0.45362450      -4.47265746       9.90339289       0.00000000 NULL      -0.00356700       0.00057600       0.00859500
P        0.45362450      -0.57732092       1.15657376       0.00000000 NULL      -0.00356700      -0.00773100      -0.00380000
P        0.45362450       5.04997838       8.90344373       0.00000000 NULL      -0.00356700       0.00715600      -0.00479500
P        3.36436077      -4.49190432      10.24882227       0.00000000 NULL       0.00018400       0.00075100       0.00252200
P        3.36436077      -0.86684810       0.96719080       0.00000000 NULL       0.00018400      -0.00256000      -0.00061100
P        3.36436077       5.35875243       8.74739731       0.00000000 NULL       0.00018400       0.00180900      -0.00191100
P        2.37237765      -0.48698020       7.93873322       0.00000000 NULL       0.00231200      -0.00595700       0.00265400
P        2.37237765      -0.86871436       5.59060135       0.00000000 NULL       0.00231200       0.00068000      -0.00648600
P        2.37237765       1.35569457       6.43407581       0.00000000 NULL       0.00231200       0.00527700       0.00383200
P        0.70369768       4.08269198       5.89364737       0.00000000 NULL      -0.00298300      -0.00340700       0.00492300
P        0.70369768       4.38048603       0.58889128       0.00000000 NULL      -0.00298300      -0.00256000      -0.00541200
P        0.70369768       8.82564254       3.49916654       0.00000000 NULL      -0.00298300       0.00596700       0.00048900
P        5.34664811       6.21915952       6.12833253       0.00000000 NULL       0.00304100      -0.00506300       0.00499500
P        5.34664811       3.10900895       2.32178387       0.00000000 NULL       0.00304100      -0.00179500      -0.00688200
P        5.34664811       7.96065208       1.53158879       0.00000000 NULL       0.00304100       0.00685700       0.00188700
P        3.83220194       2.43261358       7.80740978       0.00000000 NULL       0.00305900      -0.00278200       0.00050900
P        3.83220194      -2.21478182       8.18470546       0.00000000 NULL       0.00305900       0.00095100      -0.00266300
P        3.83220194      -0.21783176       3.97129515       0.00000000 NULL       0.00305900       0.00183100       0.00215500
P        3.74345763       1.90719852       4.68254565       0.00000000 NULL       0.00297000      -0.00105800      -0.00239000
P        3.74345763       0.75413743       9.29211473       0.00000000 NULL       0.00297000       0.00259900       0.00027900
P        3.74345763      -2.66133595       5.98875000       0.00000000 NULL       0.00297000      -0.00154100       0.00211100
P        1.91070017       4.63369663       2.48769573       0.00000000 NULL       0.00508100       0.00210600       0.00048600
P        1.91070017       7.05462435       2.76905112       0.00000000 NULL       0.00508100      -0.00147400       0.00158100
P        1.91070017       5.60049957       4.72495833       0.00000000 NULL       0.00508100      -0.00063300      -0.00206700
P        4.16252257       5.10001054       4.60919690       0.00000000 NULL      -0.00782000      -0.00309900       0.00399100
P        4.16252257       4.98419349       2.11214024       0.00000000 NULL      -0.00782000      -0.00190700      -0.00468000
P        4.16252257       7.20461652       3.26036806       0.00000000 NULL      -0.00782000       0.00500600       0.00068800
P        1.97178827       2.01948042       8.93966534       0.00000000 NULL      -0.00227700       0.00178300      -0.00376900
P        1.97178827      -2.98877731       7.26079386       0.00000000 NULL      -0.00227700       0.00237300       0.00342900
P        1.97178827       0.96929690       3.76295118       0.00000000 NULL      -0.00227700      -0.00415600       0.00034000
