16
Lattice="3.475248698532579 0.0 0.0 0.0 11.793005761131946 0.0 0.0 0.0 9.720108277726013" Properties=species:S:1:pos:R:3:initial_magmoms:R:1:castep_labels:S:1:forces:R:3 n_minim_iter=12 energy=-83.600784278106 stress="-6.83543415908645e-05 0.0 -0.0 0.0 -5.0405992623744366e-05 -0.0 -0.0 -0.0 0.00011823317990928086" free_energy=-83.600784278106 pbc="T T T"
P        0.15227133       1.02864844      -0.27984094       0.00000000 NULL       0.00183900       0.00356100      -0.00124100
P        3.32297737       6.92515132       9.99994922       0.00000000 NULL      -0.00183900       0.00356400       0.00124100
P        3.32297737       4.86785444      -0.27984094       0.00000000 NULL      -0.00183900      -0.00356400      -0.00124100
P        0.15227133      10.76435732       9.99994922       0.00000000 NULL       0.00183900      -0.00356100       0.00124100
P        1.85865892      10.79522842       6.84481509       0.00000000 NULL      -0.00038200      -0.00100700      -0.00289400
P        1.61658978       4.89872554       2.87529319       0.00000000 NULL       0.00038200      -0.00100700       0.00289400
P        1.61658978       6.89428022       6.84481509       0.00000000 NULL       0.00038200       0.00100700      -0.00289400
P        1.85865892       0.99777734       2.87529319       0.00000000 NULL      -0.00038200       0.00100700       0.00289400
P        3.36896893       7.73647816       7.94999336       0.00000000 NULL      -0.00246100      -0.00394700       0.00285900
P        0.10627976       1.83997528       1.77011491       0.00000000 NULL       0.00246100      -0.00394700      -0.00285900
P        0.10627976       9.95303049       7.94999336       0.00000000 NULL       0.00246100       0.00394700       0.00285900
P        3.36896893       4.05652760       1.77011491       0.00000000 NULL      -0.00246100       0.00394700      -0.00285900
P        1.40876576       7.84134158       4.93253823       0.00000000 NULL      -0.00297900      -0.00409900       0.00376700
P        2.06648294       1.94483870       4.78757004       0.00000000 NULL       0.00297900      -0.00409900      -0.00376700
P        2.06648294       9.84816706       4.93253823       0.00000000 NULL       0.00297900       0.00409900       0.00376700
P        1.40876576       3.95166418       4.78757004       0.00000000 NULL      -0.00297900       0.00409900      -0.00376700
