32
Lattice="9.658937342436683 0.0 0.0 0.0 12.405585107372064 0.0 0.0 0.0 5.465252664568845" Properties=species:S:1:pos:R:3:initial_magmoms:R:1:castep_labels:S:1:forces:R:3 n_minim_iter=7 energy=-170.555961733564 stress="-3.054028898274007e-06 -0.0 0.0 -0.0 1.3895831487146731e-06 0.0 0.0 0.0 -4.855905948255671e-06" free_energy=-170.555961733564 pbc="T T T"
P        2.95465542       5.03019372       3.27510076       0.00000000 NULL      -0.00212000       0.00634400       0.00221400
P        6.70428192       7.37539139       6.00772709       0.00000000 NULL       0.00212100      -0.00634500       0.00221400
P        1.87481325      11.23298628       3.27510076       0.00000000 NULL       0.00212100       0.00634300       0.00221400
P        7.78412409       1.17259883       6.00772709       0.00000000 NULL      -0.00212100      -0.00634400       0.00221400
P        1.90146187       2.02358132       4.81435325       0.00000000 NULL      -0.00257200      -0.00013000       0.00116300
P        7.75747548      10.38200379       2.08172691       0.00000000 NULL       0.00257200       0.00013000       0.00116100
P        2.92800681       8.22637388       4.81435325       0.00000000 NULL       0.00257200      -0.00013000       0.00116300
P        6.73093054       4.17921123       2.08172691       0.00000000 NULL      -0.00257200       0.00013100       0.00116100
P        3.92903971       1.08149837       4.48079876       0.00000000 NULL       0.00356700      -0.00467900       0.00563100
P        5.72989764      11.32408674       1.74817242       0.00000000 NULL      -0.00356700       0.00467900       0.00563000
P        0.90042896       7.28429092       4.48079876       0.00000000 NULL      -0.00356700      -0.00467900       0.00563100
P        8.75850838       5.12129419       1.74817242       0.00000000 NULL       0.00356600       0.00467900       0.00563000
P       10.13849718       0.50026807       3.93978104       0.00000000 NULL       0.00521100       0.00617700       0.00132100
P       -0.47955984      11.90531704       1.20715470       0.00000000 NULL      -0.00521200      -0.00617800       0.00132000
P        4.34990883       6.70306062       3.93978104       0.00000000 NULL      -0.00521200       0.00617700       0.00132100
P        5.30902851       5.70252449       1.20715470       0.00000000 NULL       0.00521300      -0.00617800       0.00132000
P        3.33352001      11.36439037       4.96524105       0.00000000 NULL       0.00085700       0.00015700      -0.00259600
P        6.32541734       1.04119474       2.23261472       0.00000000 NULL      -0.00085700      -0.00015700      -0.00259700
P        1.49594867       5.16159781       4.96524105       0.00000000 NULL      -0.00085600       0.00015800      -0.00259600
P        8.16298868       7.24398729       2.23261472       0.00000000 NULL       0.00085600      -0.00015800      -0.00259700
P        1.42355093       2.04030819       2.59978211       0.00000000 NULL       0.00316400       0.00568600      -0.00652400
P        8.23538642      10.36527692      -0.13284422       0.00000000 NULL      -0.00316500      -0.00568500      -0.00652100
P        3.40591774       8.24310074       2.59978211       0.00000000 NULL      -0.00316400       0.00568600      -0.00652300
P        6.25301960       4.16248437      -0.13284422       0.00000000 NULL       0.00316500      -0.00568500      -0.00652100
P        4.56527021       1.99837472       1.17932562       0.00000000 NULL       0.00613700      -0.00115300       0.00380800
P        5.09366713      10.40721039       3.91195195       0.00000000 NULL      -0.00613700       0.00115300       0.00380800
P        0.26419846       8.20116727       1.17932562       0.00000000 NULL      -0.00613500      -0.00115200       0.00380700
P        9.39473888       4.20441783       3.91195195       0.00000000 NULL       0.00613500       0.00115200       0.00380800
P        6.53847707      11.81167646      -0.50325198       0.00000000 NULL       0.00201800      -0.00163900      -0.00501500
P        3.12046027       0.59390865       2.22937435       0.00000000 NULL      -0.00201700       0.00163900      -0.00501700
P        7.94992894       5.60888390      -0.50325198       0.00000000 NULL      -0.00201800      -0.00163900      -0.00501500
P        1.70900840       6.79670120       2.22937435       0.00000000 NULL       0.00201700       0.00163900      -0.00501600
