64
Lattice="8.154877235607097 0.0 0.0 0.0 13.153595802475243 0.0 0.0 0.0 12.700304892751923" Properties=species:S:1:pos:R:3:initial_magmoms:R:1:castep_labels:S:1:forces:R:3 n_minim_iter=15 energy=-341.598757568729 stress="-3.824385463826283e-06 -0.0 -0.0 -0.0 5.351203460900883e-06 -0.0 -0.0 -0.0 -1.45855161547463e-05" free_energy=-341.598757568729 pbc="T T T"
P        1.74789572       4.21203167       7.63434948       0.00000000 NULL      -0.00032300       0.00151800       0.00215100
P        1.74789572       8.94156414       5.06595541       0.00000000 NULL      -0.00032300      -0.00151800      -0.00215100
P        1.74789572      10.78882957      11.41610786       0.00000000 NULL      -0.00032300       0.00151900      -0.00215100
P        1.74789572       2.36476623       1.28419703       0.00000000 NULL      -0.00032300      -0.00151900       0.00215100
P        1.13022307      12.14217456      13.11730920       0.00000000 NULL       0.00485400      -0.00727200       0.00004800
P        1.13022307       1.01142124      -0.41700431       0.00000000 NULL       0.00485400       0.00727200      -0.00004800
P        1.13022307       5.56537666       5.93314814       0.00000000 NULL       0.00485400      -0.00727400      -0.00004900
P        1.13022307       7.58821914       6.76715675       0.00000000 NULL       0.00485400       0.00727400       0.00004900
P        3.27076474       5.54625354       5.21492086       0.00000000 NULL      -0.00205100       0.00147400      -0.00196500
P        3.27076474       7.60734226       7.48538403       0.00000000 NULL      -0.00205100      -0.00147400       0.00196500
P        3.27076474      12.12305145      13.83553648       0.00000000 NULL      -0.00205100       0.00147400       0.00196500
P        3.27076474       1.03054436      -1.13523159       0.00000000 NULL      -0.00205100      -0.00147400      -0.00196500
P        6.17215501       6.07295759      10.15343988       0.00000000 NULL      -0.00682700      -0.00149800      -0.00152900
P        6.17215501       7.08063821       2.54686501       0.00000000 NULL      -0.00682700       0.00149800       0.00152900
P        6.17215501      12.64975549       8.89701746       0.00000000 NULL      -0.00682700      -0.00149600       0.00152800
P        6.17215501       0.50384031       3.80328743       0.00000000 NULL      -0.00682700       0.00149600      -0.00152800
P        0.17091391       0.62711594       8.88572857       0.00000000 NULL      -0.00636700       0.00191200       0.00146000
P        0.17091391      12.52647986       3.81457632       0.00000000 NULL      -0.00636700      -0.00191200      -0.00146000
P        0.17091391       7.20391384      10.16472877       0.00000000 NULL      -0.00636700       0.00191300      -0.00146000
P        0.17091391       5.94968196       2.53557612       0.00000000 NULL      -0.00636700      -0.00191300       0.00146000
P        2.41424822       7.26036695      10.72321135       0.00000000 NULL      -0.00400400      -0.00088600       0.00522300
P        2.41424822       5.89322886       1.97709354       0.00000000 NULL      -0.00400400       0.00088600      -0.00522300
P        2.41424822       0.68356904       8.32724599       0.00000000 NULL      -0.00400400      -0.00088700      -0.00522300
P        2.41424822      12.47002676       4.37305890       0.00000000 NULL      -0.00400400       0.00088700       0.00522300
P        0.03272962      10.61131825       2.59180364       0.00000000 NULL       0.00558900       0.00380800      -0.00644500
P        0.03272962       2.54227755      10.10850126       0.00000000 NULL       0.00558900      -0.00380800       0.00644500
P        0.03272962       4.03452035       3.75834881       0.00000000 NULL       0.00558900       0.00380800       0.00644500
P        0.03272962       9.11907545       8.94195608       0.00000000 NULL       0.00558900      -0.00380800      -0.00644500
P        5.43248384       1.17310001       7.68218949       0.00000000 NULL      -0.00052300      -0.00131900       0.00367500
P        5.43248384      11.98049580       5.01811541       0.00000000 NULL      -0.00052300       0.00131800      -0.00367500
P        5.43248384       7.74989791      11.36826785       0.00000000 NULL      -0.00052300      -0.00131800      -0.00367500
P        5.43248384       5.40369789       1.33203704       0.00000000 NULL      -0.00052300       0.00131800       0.00367500
P        7.54587923       1.80688621       7.08640880       0.00000000 NULL      -0.00070400      -0.00034000      -0.00386500
P        7.54587923      11.34670959       5.61389610       0.00000000 NULL      -0.00070400       0.00034000       0.00386500
P        7.54587923       8.38368411      11.96404854       0.00000000 NULL      -0.00070400      -0.00033900       0.00386600
P        7.54587923       4.76991169       0.73625635       0.00000000 NULL      -0.00070400       0.00033900      -0.00386600
P        5.06253338       2.74326402       9.22815687       0.00000000 NULL      -0.00142000       0.00246400       0.00151100
P        5.06253338      10.41033178       3.47214803       0.00000000 NULL      -0.00142000      -0.00246400      -0.00151100
P        5.06253338       9.32006192       9.82230047       0.00000000 NULL      -0.00142100       0.00246500      -0.00151100
P        5.06253338       3.83353388       2.87800442       0.00000000 NULL      -0.00142100      -0.00246500       0.00151100
P        7.67073490       9.41354881       4.43327460       0.00000000 NULL       0.00763200       0.00142900       0.00365000
P        7.67073490       3.74004699       8.26703029       0.00000000 NULL       0.00763200      -0.00142900      -0.00365000
P        7.67073490       2.83675091       1.91687784       0.00000000 NULL       0.00763200       0.00142900      -0.00365000
P        7.67073490      10.31684489      10.78342705       0.00000000 NULL       0.00763200      -0.00142900       0.00365000
P        2.95163513      10.86136248       2.93315603       0.00000000 NULL      -0.00012000       0.00059700      -0.00647000
P        2.95163513       2.29223332       9.76714886       0.00000000 NULL      -0.00012000      -0.00059700       0.00647000
P        2.95163513       4.28456458       3.41699642       0.00000000 NULL      -0.00012000       0.00059700       0.00647000
P        2.95163513       8.86903123       9.28330848       0.00000000 NULL      -0.00012000      -0.00059700      -0.00647000
P        4.00418974      10.72368513      12.24078025       0.00000000 NULL       0.00112100       0.00630000       0.00113700
P        4.00418974       2.42991067       0.45952465       0.00000000 NULL       0.00112100      -0.00630000      -0.00113800
P        4.00418974       4.14688723       6.80967709       0.00000000 NULL       0.00112100       0.00630000      -0.00113700
P        4.00418974       9.00670857       5.89062780       0.00000000 NULL       0.00112100      -0.00630000       0.00113700
P        2.69613844       5.41934439       9.39349878       0.00000000 NULL      -0.00405600       0.00030600       0.00242600
P        2.69613844       7.73425141       3.30680612       0.00000000 NULL      -0.00405600      -0.00030600      -0.00242600
P        2.69613844      -1.15745351       9.65695856       0.00000000 NULL      -0.00405600       0.00030700      -0.00242600
P        2.69613844      14.31104931       3.04334633       0.00000000 NULL      -0.00405600      -0.00030700       0.00242600
P        4.54742458       0.72310116       1.92881273       0.00000000 NULL       0.00929400      -0.00041200      -0.00282600
P        4.54742458      12.43049465      10.77149216       0.00000000 NULL       0.00929400       0.00041200       0.00282600
P        4.54742458       7.29989906       4.42133972       0.00000000 NULL       0.00929400      -0.00041100       0.00282600
P        4.54742458       5.85369674       8.27896518       0.00000000 NULL       0.00929400       0.00041100      -0.00282600
P        6.21208366      10.82151505       1.67121389       0.00000000 NULL      -0.00209500      -0.00141000      -0.00206300
P        6.21208366       2.33208076      11.02909100       0.00000000 NULL      -0.00209500       0.00141000       0.00206300
P        6.21208366       4.24471714       4.67893855       0.00000000 NULL      -0.00209500      -0.00141100       0.00206300
P        6.21208366       8.90887866       8.02136634       0.00000000 NULL      -0.00209500       0.00141100      -0.00206300
