21
Lattice="9.176112241699377 5.612811350937942e-15 0.0 -4.588056120849693 7.946746309289032 0.0 0.0 0.0 6.912434139409277" Properties=species:S:1:pos:R:3:initial_magmoms:R:1:castep_labels:S:1:forces:R:3 n_minim_iter=5 energy=-110.192137870991 stress="9.72113657294039e-06 0.0 0.0 0.0 9.7012975187099e-06 -0.0 0.0 -0.0 7.955460746426727e-06" free_energy=-110.192137870991 pbc="T T T"
P        4.99237614       3.93783561       5.35442856       0.00000000 NULL      -0.00411600      -0.00792200       0.00265800
P        3.26965850       2.35460674       5.35442856       0.00000000 NULL       0.00891700       0.00039800       0.00265800
P        5.50213374       1.65430394       5.35442856       0.00000000 NULL      -0.00480300       0.00752500       0.00265800
P       -2.20733169       4.67241934       4.47442621       0.00000000 NULL      -0.00399700       0.00220900      -0.00686300
P        1.64528813       3.69893131       4.47442621       0.00000000 NULL       0.00008500      -0.00456700      -0.00686200
P        0.56204358       7.52214196       4.47442621       0.00000000 NULL       0.00391200       0.00235600      -0.00686300
P        4.02143754       3.93377866       1.78118098       0.00000000 NULL       0.00225100      -0.00144000       0.00191000
P        3.75864121       1.51577773       1.78118098       0.00000000 NULL       0.00012100       0.00267100       0.00191000
P        5.98408961       2.49718990       1.78118098       0.00000000 NULL      -0.00237300      -0.00123000       0.00191000
P        1.64972811       5.12635998       6.20186519       0.00000000 NULL       0.00095800       0.00188400       0.00446800
P       -0.67636590       6.81227276       6.20186519       0.00000000 NULL      -0.00211100      -0.00011300       0.00446700
P       -0.97336220       3.95485987       6.20186519       0.00000000 NULL       0.00115300      -0.00177200       0.00446700
P        0.20783912       2.22878392       5.40357939       0.00000000 NULL      -0.00230200      -0.00081200       0.00171700
P        2.55395307       7.01234830       5.40357939       0.00000000 NULL       0.00185500      -0.00158800       0.00171700
P       -2.76179217       6.65236039       5.40357939       0.00000000 NULL       0.00044700       0.00240000       0.00171700
P        2.05260114       1.85810945       7.15456109       0.00000000 NULL      -0.00364100       0.00254300      -0.00126700
P        6.54064169       0.84855000       7.15456109       0.00000000 NULL      -0.00038100      -0.00442400      -0.00126700
P        5.17092555       5.24008685       7.15456109       0.00000000 NULL       0.00402100       0.00188200      -0.00126700
P        1.85068753       3.91552895       1.14616040       0.00000000 NULL       0.00177400       0.00761800      -0.00262300
P        4.85982094      -0.35502207       1.14616040       0.00000000 NULL      -0.00748400      -0.00227500      -0.00262300
P        7.05365991       4.38623942       1.14616040       0.00000000 NULL       0.00571200      -0.00534500      -0.00262300
