21
Lattice="3.3190799999999996 0.0 0.0 0.0 12.900579999999998 2.016279552175657e-15 0.0 -6.450290000000001 11.172230003553448" Properties=species:S:1:pos:R:3:initial_magmoms:R:1:castep_labels:S:1 n_minim_iter=1 pbc="T T T"
P        1.03137225       5.38267606      10.62795136       0.00000000 NULL
P        3.24409225       0.06244784       1.19672012       0.00000000 NULL
P        2.13773225      -5.44512389      10.51978853       0.00000000 NULL
P        2.67039768       7.91121360       1.91434374       0.00000000 NULL
P        1.56403768       4.15255352       3.36374619       0.00000000 NULL
P        0.45767768       7.28710290       5.89414008       0.00000000 NULL
P        0.59612934       4.50728140       6.57766270       0.00000000 NULL
P        2.80884934       9.89307230       3.97997847       0.00000000 NULL
P        1.70248934       4.95051631       0.61458884       0.00000000 NULL
P        2.20807506       1.48151809       7.91227160       0.00000000 NULL
P        1.10171506      -0.33882083       5.93306191       0.00000000 NULL
P        3.31443506      -1.14269724       8.49912650       0.00000000 NULL
P        1.14237788       0.15841783       3.86953985       0.00000000 NULL
P        0.03601788      -3.17837910       9.10026622       0.00000000 NULL
P        2.24873788       3.01996128       9.37465394       0.00000000 NULL
P        0.58721827       3.49487162       8.32223658       0.00000000 NULL
P        2.79993827      -0.99045751       3.98446411       0.00000000 NULL
P        1.69357827      -2.50441410      10.03775932       0.00000000 NULL
P        1.85707571      11.61509977       2.09498194       0.00000000 NULL
P        0.75071571       2.45704770       0.06576757       0.00000000 NULL
P        2.96343571       5.27872254       9.01148050       0.00000000 NULL
21
Lattice="3.3312913049650716 0.0 0.0 0.0 12.926341247765222 -4.957612487975626e-16 0.0 -6.463170623882611 11.19453989855132" Properties=species:S:1:pos:R:3:initial_magmoms:R:1:castep_labels:S:1 n_minim_iter=2 pbc="T T T"
P        1.03519860       5.39345612      10.64925892       0.00000000 NULL
P        3.25605947       0.06263008       1.19904043       0.00000000 NULL
P        2.14562903      -5.45608618      10.54078045       0.00000000 NULL
P        2.68023182       7.92706562       1.91826374       0.00000000 NULL
P        1.56980138       4.16090295       3.37036783       0.00000000 NULL
P        0.45937095       7.30154332       5.90590834       0.00000000 NULL
P        0.59829999       4.51651545       6.59058200       0.00000000 NULL
P        2.81916086       9.91252434       3.98783179       0.00000000 NULL
P        1.70873042       4.96047209       0.61612611       0.00000000 NULL
P        2.21620622       1.48439457       7.92800219       0.00000000 NULL
P        1.10577579      -0.33951660       5.94501540       0.00000000 NULL
P        3.32663666      -1.14487796       8.51606221       0.00000000 NULL
P        1.14656592       0.15924206       3.87719972       0.00000000 NULL
P        0.03613549      -3.18503819       9.11803238       0.00000000 NULL
P        2.25699636       3.02579615       9.39384770       0.00000000 NULL
P        0.58940878       3.50172896       8.33856904       0.00000000 NULL
P        2.81026965      -0.99262248       3.99266915       0.00000000 NULL
P        1.69983922      -2.50910646      10.05784161       0.00000000 NULL
P        1.86386695      11.63811973       2.09902464       0.00000000 NULL
P        0.75343652       2.46191942       0.06612025       0.00000000 NULL
P        2.97429739       5.28947273       9.02939502       0.00000000 NULL
21
Lattice="3.5119120564305817 -1.9061969357560833e-58 -2.7099540561446164e-42 -1.690242685990232e-57 13.289497310896785 1.3851897103714446e-15 -4.576101946846491e-41 -6.644748655448394 11.509042274761596" Properties=species:S:1:pos:R:3:initial_magmoms:R:1:castep_labels:S:1 n_minim_iter=3 pbc="T T T"
P        1.09176554       5.54553075      10.94972159       0.00000000 NULL
P        3.43304024       0.06522304       1.23161097       0.00000000 NULL
P        2.26240289      -5.61075378      10.83675199       0.00000000 NULL
P        2.82570688       8.15061291       1.97364187       0.00000000 NULL
P        1.65506953       4.27866620       3.46358351       0.00000000 NULL
P        0.48443218       7.50496687       6.07181690       0.00000000 NULL
P        0.63036311       4.64693073       6.77254329       0.00000000 NULL
P        2.97163781      10.18647783       4.09841058       0.00000000 NULL
P        1.80100046       5.10083742       0.63808841       0.00000000 NULL
P        2.33647164       1.52492988       8.14972147       0.00000000 NULL
P        1.16583429      -0.34934777       6.11355353       0.00000000 NULL
P        3.50710899      -1.17558210       8.75480955       0.00000000 NULL
P        1.20849576       0.17134826       3.98516287       0.00000000 NULL
P        0.03785841      -3.27917049       9.36806890       0.00000000 NULL
P        2.37913311       3.10782225       9.66485278       0.00000000 NULL
P        0.62182543       3.59828863       8.56850643       0.00000000 NULL
P        2.96310013      -1.02334872       4.10857971       0.00000000 NULL
P        1.79246278      -2.57493989      10.34099842       0.00000000 NULL
P        1.96438083      11.96248573       2.15588253       0.00000000 NULL
P        0.79374348       2.53055483       0.07128448       0.00000000 NULL
P        3.13501819       5.44120542       9.28187527       0.00000000 NULL
21
Lattice="3.587936468548256 -2.290693675556627e-43 -1.3791061423247107e-41 -8.668260181988336e-43 13.2543376276982 2.9498441475387077e-15 1.3879175056145793e-41 -6.627168813849104 11.478593095922609" Properties=species:S:1:pos:R:3:initial_magmoms:R:1:castep_labels:S:1 n_minim_iter=4 pbc="T T T"
P        1.11498735       5.53248146      10.92190796       0.00000000 NULL
P        3.50694499       0.06524021       1.22636964       0.00000000 NULL
P        2.31096617      -5.59772165      10.80890860       0.00000000 NULL
P        2.88705425       8.13007191       1.96964489       0.00000000 NULL
P        1.69107543       4.26789537       3.45292185       0.00000000 NULL
P        0.49509660       7.48353917       6.05602636       0.00000000 NULL
P        0.64352688       4.63700372       6.75312628       0.00000000 NULL
P        3.03548452      10.15704587       4.08626694       0.00000000 NULL
P        1.83950570       5.08745686       0.63919988       0.00000000 NULL
P        2.38694912       1.52100527       8.12793753       0.00000000 NULL
P        1.19097030      -0.34867106       6.09739513       0.00000000 NULL
P        3.58292795      -1.17233420       8.73185353       0.00000000 NULL
P        1.23445426       0.17574897       3.97460033       0.00000000 NULL
P        0.03847544      -3.27293844       9.33908987       0.00000000 NULL
P        2.43043309       3.09718948       9.64349600       0.00000000 NULL
P        0.63557842       3.58768236       8.54252693       0.00000000 NULL
P        3.02753606      -1.02296466       4.10030557       0.00000000 NULL
P        1.83155724      -2.56471769      10.31435370       0.00000000 NULL
P        2.00763367      11.92962222       2.14872476       0.00000000 NULL
P        0.81165485       2.52320794       0.07287482       0.00000000 NULL
P        3.20361249       5.42867629       9.25699352       0.00000000 NULL
21
Lattice="3.6584976488721317 8.045993390033088e-44 -4.481219333357141e-41 2.506943596958947e-43 13.115299037209262 2.5693837986616246e-17 -8.615469730864247e-41 -6.557649518604632 11.358182144452806" Properties=species:S:1:pos:R:3:initial_magmoms:R:1:castep_labels:S:1 n_minim_iter=5 pbc="T T T"
P        1.13576463       5.47735492      10.80926026       0.00000000 NULL
P        3.57476306       0.06476701       1.21002352       0.00000000 NULL
P        2.35526384      -5.54212192      10.69708052       0.00000000 NULL
P        2.94412995       8.04648320       1.95096377       0.00000000 NULL
P        1.72463074       4.22399212       3.41424141       0.00000000 NULL
P        0.50513152       7.40247326       5.99297697       0.00000000 NULL
P        0.65536646       4.59218050       6.67993871       0.00000000 NULL
P        3.09436489      10.04655590       4.04126782       0.00000000 NULL
P        1.87486568       5.03421217       0.63697561       0.00000000 NULL
P        2.43366753       1.50527789       8.04225677       0.00000000 NULL
P        1.21416832      -0.34548979       6.03344488       0.00000000 NULL
P        3.65316675      -1.15978808       8.64066265       0.00000000 NULL
P        1.25843830       0.18027616       3.93279069       0.00000000 NULL
P        0.03893909      -3.24189095       9.23566307       0.00000000 NULL
P        2.47793752       3.06161480       9.54791054       0.00000000 NULL
P        0.64857284       3.54802482       8.44889499       0.00000000 NULL
P        3.08757128      -1.01470423       4.06105503       0.00000000 NULL
P        1.86807206      -2.53332058      10.20641428       0.00000000 NULL
P        2.04880640      11.80286912       2.12428535       0.00000000 NULL
P        0.82930718       2.49590004       0.07445498       0.00000000 NULL
P        3.26830561       5.37417941       9.15944182       0.00000000 NULL
21
Lattice="3.756827296247939 -3.104714909603094e-42 -5.181783499515372e-41 -1.1155149888325848e-41 12.846649729168213 1.799075971322491e-15 -5.253527764720192e-41 -6.423324864584109 11.125525018980145" Properties=species:S:1:pos:R:3:initial_magmoms:R:1:castep_labels:S:1 n_minim_iter=6 pbc="T T T"
P        1.16251604       5.37198279      10.59267959       0.00000000 NULL
P        3.66706757       0.06421337       1.17691166       0.00000000 NULL
P        2.41479180      -5.43619614      10.48145879       0.00000000 NULL
P        3.02408902       7.88580622       1.91606244       0.00000000 NULL
P        1.77181325       4.13978051       3.33818528       0.00000000 NULL
P        0.51953748       7.24438787       5.87127730       0.00000000 NULL
P        0.67089949       4.50834492       6.53618030       0.00000000 NULL
P        3.17545102       9.82965059       3.95309365       0.00000000 NULL
P        1.92317526       4.93197910       0.63625108       0.00000000 NULL
P        2.49848515       1.47399601       7.87567445       0.00000000 NULL
P        1.24620938      -0.33978872       5.91116982       0.00000000 NULL
P        3.75076091      -1.13420727       8.46420578       0.00000000 NULL
P        1.29159700       0.18951876       3.85076349       0.00000000 NULL
P        0.03932123      -3.18322523       9.03601522       0.00000000 NULL
P        2.54387276       2.99370648       9.36427133       0.00000000 NULL
P        0.66767384       3.46899466       8.26979857       0.00000000 NULL
P        3.17222537      -0.99596655       3.98638824       0.00000000 NULL
P        1.91994961      -2.47302810       9.99486324       0.00000000 NULL
P        2.10848601      11.55715318       2.07711641       0.00000000 NULL
P        0.85621025       2.44358386       0.07817857       0.00000000 NULL
P        3.36076178       5.26923756       8.97023004       0.00000000 NULL
21
Lattice="3.784129888866856 -2.9706068728262024e-42 -2.035471595846057e-41 -1.0753500287087872e-41 12.87584845651068 -1.1279670605994282e-15 2.753070528208747e-41 -6.43792422825534 11.150811858616901" Properties=species:S:1:pos:R:3:initial_magmoms:R:1:castep_labels:S:1 n_minim_iter=7 pbc="T T T"
P        1.16686659       5.38943374      10.62088827       0.00000000 NULL
P        3.68961985       0.06531796       1.17298120       0.00000000 NULL
P        2.42824322      -5.45475169      10.50775426       0.00000000 NULL
P        3.04694527       7.90725001       1.92531291       0.00000000 NULL
P        1.78556864       4.15166912       3.34027602       0.00000000 NULL
P        0.52419201       7.25485357       5.88522293       0.00000000 NULL
P        0.67391747       4.52924718       6.54296366       0.00000000 NULL
P        3.19667073       9.83967340       3.95688692       0.00000000 NULL
P        1.93529410       4.94485213       0.65096128       0.00000000 NULL
P        2.51619832       1.47534621       7.89027525       0.00000000 NULL
P        1.25482169      -0.34241852       5.92798694       0.00000000 NULL
P        3.77757495      -1.13292768       8.48336153       0.00000000 NULL
P        1.30053240       0.19900097       3.85627875       0.00000000 NULL
P        0.03915577      -3.19778934       9.05033259       0.00000000 NULL
P        2.56190903       2.99878838       9.39501238       0.00000000 NULL
P        0.67463829       3.46949609       8.28754666       0.00000000 NULL
P        3.19739155      -0.99544633       4.00236679       0.00000000 NULL
P        1.93601492      -2.47404975      10.01171028       0.00000000 NULL
P        2.12766982      11.57966457       2.07972089       0.00000000 NULL
P        0.86629319       2.44918308       0.08266773       0.00000000 NULL
P        3.38904645       5.28492505       8.98842323       0.00000000 NULL
21
Lattice="3.7732011678011697 -2.4790025276467152e-42 -5.729260694447909e-42 -9.108295716289163e-42 12.80122489504972 -2.2877444745253558e-15 4.5339587786196593e-41 -6.400612447524859 11.086185958670841" Properties=species:S:1:pos:R:3:initial_magmoms:R:1:castep_labels:S:1 n_minim_iter=8 pbc="T T T"
P        1.16200079       5.35998682      10.56073072       0.00000000 NULL
P        3.67746823       0.06525523       1.16393585       0.00000000 NULL
P        2.41973451      -5.42524204      10.44770535       0.00000000 NULL
P        3.03844759       7.86271303       1.91583399       0.00000000 NULL
P        1.78071387       4.12841684       3.31895974       0.00000000 NULL
P        0.52298014       7.21070748       5.85139223       0.00000000 NULL
P        0.67132808       4.50632615       6.50290060       0.00000000 NULL
P        3.18679552       9.77912650       3.93214274       0.00000000 NULL
P        1.92906180       4.91638471       0.65114262       0.00000000 NULL
P        2.50875548       1.46639665       7.84362184       0.00000000 NULL
P        1.25102176      -0.34103500       5.89443829       0.00000000 NULL
P        3.76648920      -1.12536164       8.43431179       0.00000000 NULL
P        1.29664960       0.20049292       3.83302812       0.00000000 NULL
P        0.03891588      -3.18135918       8.99603995       0.00000000 NULL
P        2.55438333       2.98086628       9.34330386       0.00000000 NULL
P        0.67331471       3.44724980       8.23894653       0.00000000 NULL
P        3.18878216      -0.98910035       3.98130680       0.00000000 NULL
P        1.93104843      -2.45814944       9.95211860       0.00000000 NULL
P        2.12303991      11.51145345       2.06720793       0.00000000 NULL
P        0.86530619       2.43514031       0.08337088       0.00000000 NULL
P        3.38077364       5.25524360       8.93560715       0.00000000 NULL
21
Lattice="3.776244251285321 -2.3238357974503874e-42 3.2055311932127644e-41 -8.600879444629165e-42 12.783466447476112 3.5373289579715992e-15 -5.715276096256308e-41 -6.39173322373806 11.07080669194032" Properties=species:S:1:pos:R:3:initial_magmoms:R:1:castep_labels:S:1 n_minim_iter=9 pbc="T T T"
P        1.16150319       5.35422948      10.54745054       0.00000000 NULL
P        3.67899936       0.06551215       1.16018268       0.00000000 NULL
P        2.42025127      -5.41974162      10.43398017       0.00000000 NULL
P        3.04121280       7.85305287       1.91495017       0.00000000 NULL
P        1.78246472       4.12360229       3.31238833       0.00000000 NULL
P        0.52371663       7.19854452       5.84346819       0.00000000 NULL
P        0.67121587       4.50361064       6.49146910       0.00000000 NULL
P        3.18871204       9.76170506       3.92483093       0.00000000 NULL
P        1.92996395       4.90988399       0.65450667       0.00000000 NULL
P        2.51062340       1.46374564       7.83164610       0.00000000 NULL
P        1.25187531      -0.34120157       5.88734274       0.00000000 NULL
P        3.76937148      -1.12254406       8.42262455       0.00000000 NULL
P        1.29759338       0.20303501       3.82662985       0.00000000 NULL
P        0.03884530      -3.17929206       8.98165830       0.00000000 NULL
P        2.55634147       2.97625707       9.33332524       0.00000000 NULL
P        0.67453624       3.44014613       8.22703404       0.00000000 NULL
P        3.19203241      -0.98698581       3.97803574       0.00000000 NULL
P        1.93328432      -2.45316031       9.93654361       0.00000000 NULL
P        2.12610468      11.49421060       2.06384780       0.00000000 NULL
P        0.86735660       2.43197256       0.08460442       0.00000000 NULL
P        3.38485277       5.24901653       8.92235447       0.00000000 NULL
21
Lattice="3.799837551718854 -3.062320332906784e-42 6.529178146472594e-41 -1.124543927872573e-41 12.635784559905488 5.258753523736293e-16 2.8733442831459445e-41 -6.317892279952746 10.942910425625321" Properties=species:S:1:pos:R:3:initial_magmoms:R:1:castep_labels:S:1 n_minim_iter=10 pbc="T T T"
P        1.15699929       5.30557842      10.43653490       0.00000000 NULL
P        3.69022433       0.06762287       1.12987729       0.00000000 NULL
P        2.42361181      -5.37320127      10.31940866       0.00000000 NULL
P        3.06282845       7.77242045       1.90733261       0.00000000 NULL
P        1.79621593       4.08348056       3.25813057       0.00000000 NULL
P        0.52960341       7.09777585       5.77744725       0.00000000 NULL
P        0.67002452       4.48001466       6.39743062       0.00000000 NULL
P        3.20324956       9.61822239       3.86438862       0.00000000 NULL
P        1.93663704       4.85543980       0.68109119       0.00000000 NULL
P        2.52505033       1.44181738       7.73229057       0.00000000 NULL
P        1.25843781      -0.34244090       5.82811467       0.00000000 NULL
P        3.79166285      -1.09937647       8.32541562       0.00000000 NULL
P        1.30496206       0.22302216       3.77364091       0.00000000 NULL
P        0.03834954      -3.16133446       8.86294712       0.00000000 NULL
P        2.57157458       2.93831232       9.24923282       0.00000000 NULL
P        0.68428798       3.38190119       8.12800752       0.00000000 NULL
P        3.21751302      -0.96978188       3.95009433       0.00000000 NULL
P        1.95090050      -2.41211930       9.80771901       0.00000000 NULL
P        2.15037935      11.35107046       2.03640613       0.00000000 NULL
P        0.88376683       2.40593650       0.09439199       0.00000000 NULL
P        3.41699187       5.19666990       8.81211231       0.00000000 NULL
21
Lattice="3.866967686573811 -1.2990823037886788e-42 6.68234237958399e-41 -5.777335833178691e-42 12.39182471305881 -1.1170525904025756e-15 1.833005576712148e-41 -6.195912356529406 10.731635000752737" Properties=species:S:1:pos:R:3:initial_magmoms:R:1:castep_labels:S:1 n_minim_iter=11 pbc="T T T"
P        1.14894915       5.22723960      10.25899664       0.00000000 NULL
P        3.72692761       0.07501956       1.07521441       0.00000000 NULL
P        2.43793838      -5.30225914      10.12905896       0.00000000 NULL
P        3.12415569       7.64691462       1.90763895       0.00000000 NULL
P        1.83516646       4.02451884       3.15539321       0.00000000 NULL
P        0.54617723       6.91630362       5.66860285       0.00000000 NULL
P        0.66837027       4.45920527       6.23445718       0.00000000 NULL
P        3.24634872       9.36550803       3.75262137       0.00000000 NULL
P        1.95735949       4.76302378       0.74455645       0.00000000 NULL
P        2.56697865       1.40072687       7.56057084       0.00000000 NULL
P        1.27798942      -0.34862937       5.73828453       0.00000000 NULL
P        3.85596788      -1.05209749       8.16441463       0.00000000 NULL
P        1.32767210       0.26506851       3.67863752       0.00000000 NULL
P        0.03868287      -3.14265306       8.66276019       0.00000000 NULL
P        2.61666133       2.87758457       9.12187230       0.00000000 NULL
P        0.70979218       3.27608748       7.96052578       0.00000000 NULL
P        3.28777064      -0.93993854       3.91419713       0.00000000 NULL
P        1.99878141      -2.33614893       9.58854709       0.00000000 NULL
P        2.21274300      11.10557853       1.99480443       0.00000000 NULL
P        0.92375378       2.37067441       0.11651967       0.00000000 NULL
P        3.50173223       5.11148415       8.62031091       0.00000000 NULL
21
Lattice="3.7249602564277957 9.205648838533509e-43 9.69428498928715e-41 1.3542766859929546e-42 11.815888668152319 -4.1314906155541625e-15 -1.003406049274721e-40 -5.9079443340761575 10.232859754908581" Properties=species:S:1:pos:R:3:initial_magmoms:R:1:castep_labels:S:1 n_minim_iter=12 pbc="T T T"
P        1.08259919       4.99127812       9.79968316       0.00000000 NULL
P        3.56590603       0.08319118       1.01044453       0.00000000 NULL
P        2.32425261      -5.07446929       9.65559182       0.00000000 NULL
P        3.01702038       7.31211579       1.85010330       0.00000000 NULL
P        1.77536696       3.85412290       2.97533008       0.00000000 NULL
P        0.53371354       6.55759432       5.40742638       0.00000000 NULL
P        0.63234489       4.29875706       5.92254294       0.00000000 NULL
P        3.11565172       8.88763845       3.54875547       0.00000000 NULL
P        1.87399830       4.53743750       0.76156135       0.00000000 NULL
P        2.47097309       1.32629801       7.19130234       0.00000000 NULL
P        1.22931967      -0.34324282       5.48860083       0.00000000 NULL
P        3.71262651      -0.98305517       7.78581635       0.00000000 NULL
P        1.27938019       0.27871200       3.49115540       0.00000000 NULL
P        0.03772677      -3.02387106       8.24591039       0.00000000 NULL
P        2.52103361       2.74515907       8.72865372       0.00000000 NULL
P        0.69525951       3.09692030       7.57957935       0.00000000 NULL
P        3.17856634      -0.89229621       3.76105843       0.00000000 NULL
P        1.93691293      -2.20462408       9.12508173       0.00000000 NULL
P        2.14926813      10.56713468       1.90949193       0.00000000 NULL
P        0.90761471       2.27804552       0.12670672       0.00000000 NULL
P        3.39092155       4.87865281       8.19666111       0.00000000 NULL
21
Lattice="3.8579300132605483 7.36714229166677e-42 5.879755503169512e-41 2.1736904909349676e-41 12.280428144860938 -1.1913871948622528e-15 -2.4299595559473154e-40 -6.14021407243047 10.635162742798974" Properties=species:S:1:pos:R:3:initial_magmoms:R:1:castep_labels:S:1 n_minim_iter=13 pbc="T T T"
P        1.12068559       5.18568863      10.18583593       0.00000000 NULL
P        3.69263893       0.08813430       1.05130670       0.00000000 NULL
P        2.40666226      -5.27382291      10.03318286       0.00000000 NULL
P        3.12524785       7.60076486       1.92411662       0.00000000 NULL
P        1.83927118       4.00616552       3.09064898       0.00000000 NULL
P        0.55329451       6.81371185       5.62039714       0.00000000 NULL
P        0.65434917       4.47079178       6.15226815       0.00000000 NULL
P        3.22630251       9.23283869       3.68720942       0.00000000 NULL
P        1.94032584       4.71701176       0.79568518       0.00000000 NULL
P        2.55928501       1.37628412       7.47167099       0.00000000 NULL
P        1.27330834      -0.35769924       5.70743024       0.00000000 NULL
P        3.84526168      -1.01858487       8.09122426       0.00000000 NULL
P        1.32541108       0.29280538       3.62608555       0.00000000 NULL
P        0.03943441      -3.14633456       8.56854308       0.00000000 NULL
P        2.61138775       2.85352919       9.07569687       0.00000000 NULL
P        0.72114632       3.21560520       7.87703852       0.00000000 NULL
P        3.29309967      -0.92630120       3.91184770       0.00000000 NULL
P        2.00712299      -2.28930399       9.48143927       0.00000000 NULL
P        2.22505429      10.97960492       1.98460285       0.00000000 NULL
P        0.93907761       2.36912811       0.13424454       0.00000000 NULL
P        3.51103096       5.07190921       8.51631535       0.00000000 NULL
21
Lattice="3.8543160411127406 5.913553159293682e-42 1.0407894779607355e-40 1.7163427210175277e-41 12.241729750114406 -1.9341929198038042e-15 -1.8267462598889846e-40 -6.120864875057203 10.601648949862797" Properties=species:S:1:pos:R:3:initial_magmoms:R:1:castep_labels:S:1 n_minim_iter=14 pbc="T T T"
P        1.11836920       5.16924886      10.15462032       0.00000000 NULL
P        3.68791323       0.08866986       1.04763797       0.00000000 NULL
P        2.40314122      -5.25791871      10.00103962       0.00000000 NULL
P        3.12282841       7.57794318       1.91965435       0.00000000 NULL
P        1.83805639       3.99436272       3.07913048       0.00000000 NULL
P        0.55328438       6.79028873       5.60286413       0.00000000 NULL
P        0.65306604       4.45891735       6.13193835       0.00000000 NULL
P        3.22261007       9.20182059       3.67414408       0.00000000 NULL
P        1.93783805       4.70185670       0.79556652       0.00000000 NULL
P        2.55683412       1.37155101       7.44726290       0.00000000 NULL
P        1.27206211      -0.35712152       5.69021949       0.00000000 NULL
P        3.84160613      -1.01442948       8.06581552       0.00000000 NULL
P        1.32427525       0.29307318       3.61395538       0.00000000 NULL
P        0.03950323      -3.13762429       8.54086245       0.00000000 NULL
P        2.60904726       2.84455113       9.04848008       0.00000000 NULL
P        0.72106214       3.20416435       7.85136637       0.00000000 NULL
P        3.29060616      -0.92346431       3.90107805       0.00000000 NULL
P        2.00583415      -2.28070002       9.45085349       0.00000000 NULL
P        2.22375481      10.94369236       1.97898348       0.00000000 NULL
P        0.93898279       2.36286866       0.13464162       0.00000000 NULL
P        3.50852682       5.05603361       8.48802386       0.00000000 NULL
21
Lattice="3.8571864893701013 5.490161132849255e-42 6.775996891790532e-41 1.585394094369477e-41 12.227083713879567 -1.7486268920029446e-15 -9.744676595613932e-41 -6.113541856939784 10.58896511041868" Properties=species:S:1:pos:R:3:initial_magmoms:R:1:castep_labels:S:1 n_minim_iter=15 pbc="T T T"
P        1.11774314       5.16283931      10.14350162       0.00000000 NULL
P        3.68920080       0.08956858       1.04606431       0.00000000 NULL
P        2.40347197      -5.25240787       9.98836429       0.00000000 NULL
P        3.12576185       7.57018951       1.91918221       0.00000000 NULL
P        1.84003302       3.99050765       3.07339758       0.00000000 NULL
P        0.55430419       6.77992842       5.59638532       0.00000000 NULL
P        0.65276975       4.45617801       6.12338026       0.00000000 NULL
P        3.22422741       9.18845572       3.66811163       0.00000000 NULL
P        1.93849858       4.69599186       0.79747323       0.00000000 NULL
P        2.55869271       1.36934547       7.43725338       0.00000000 NULL
P        1.27296388      -0.35736423       5.68445046       0.00000000 NULL
P        3.84442154      -1.01198123       8.05622639       0.00000000 NULL
P        1.32538426       0.29419938       3.60872525       0.00000000 NULL
P        0.03965544      -3.13539380       8.52981835       0.00000000 NULL
P        2.61111309       2.84119443       9.03938662       0.00000000 NULL
P        0.72233706       3.19870673       7.84100776       0.00000000 NULL
P        3.29379472      -0.92238330       3.89829994       0.00000000 NULL
P        2.00806589      -2.27632342       9.43862252       0.00000000 NULL
P        2.22622964      10.92896985       1.97733580       0.00000000 NULL
P        0.94050081       2.36147997       0.13553169       0.00000000 NULL
P        3.51195847       5.05017576       8.47609762       0.00000000 NULL
21
Lattice="3.8707554371814603 4.701576833255839e-42 7.926456295072191e-41 1.3473775791635527e-41 12.182235470565828 -2.5305615445285526e-15 -3.7384008396910817e-41 -6.091117735282913 10.550125392393877" Properties=species:S:1:pos:R:3:initial_magmoms:R:1:castep_labels:S:1 n_minim_iter=16 pbc="T T T"
P        1.11511899       5.14277721      10.11087503       0.00000000 NULL
P        3.69562261       0.09376829       1.04091218       0.00000000 NULL
P        2.40537080      -5.23654549       9.94846359       0.00000000 NULL
P        3.13951684       7.54823714       1.92014606       0.00000000 NULL
P        1.84926502       3.97989444       3.05308725       0.00000000 NULL
P        0.55901321       6.74522164       5.57689209       0.00000000 NULL
P        0.65155890       4.45127412       6.09541117       0.00000000 NULL
P        3.23206253       9.14426160       3.64750334       0.00000000 NULL
P        1.94181071       4.67781750       0.80721088       0.00000000 NULL
P        2.56751020       1.36173763       7.40500773       0.00000000 NULL
P        1.27725839      -0.35906173       5.66832215       0.00000000 NULL
P        3.85776202      -1.00267588       8.02692090       0.00000000 NULL
P        1.33057745       0.29963333       3.59140102       0.00000000 NULL
P        0.04032564      -3.13068988       8.49493481       0.00000000 NULL
P        2.62082927       2.83105656       9.01391495       0.00000000 NULL
P        0.72826345       3.17966975       7.80803891       0.00000000 NULL
P        3.30876707      -0.91899255       3.89243117       0.00000000 NULL
P        2.01851526      -2.26067718       9.39978071       0.00000000 NULL
P        2.23763299      10.88159659       1.97330731       0.00000000 NULL
P        0.94738118       2.35925371       0.13973266       0.00000000 NULL
P        3.52788480       5.03250292       8.43708542       0.00000000 NULL
21
Lattice="3.8728742370728417 3.4316399764581644e-42 1.0304072913357428e-40 9.661399589376058e-42 12.0364661471228 6.669811990055211e-16 -1.7011706453320307e-41 -6.018233073561402 10.423885455199741" Properties=species:S:1:pos:R:3:initial_magmoms:R:1:castep_labels:S:1 n_minim_iter=17 pbc="T T T"
P        1.08435046       5.07448945      10.01102902       0.00000000 NULL
P        3.66626662       0.11432765       1.02373418       0.00000000 NULL
P        2.37530854      -5.18881709       9.81300772       0.00000000 NULL
P        3.15485145       7.48434460       1.93224276       0.00000000 NULL
P        1.86389337       3.94943210       2.97613153       0.00000000 NULL
P        0.57293530       6.62092254       5.51551117       0.00000000 NULL
P        0.63541321       4.44843534       5.99702735       0.00000000 NULL
P        3.21732937       8.98759344       3.57291378       0.00000000 NULL
P        1.92637129       4.61867045       0.85394433       0.00000000 NULL
P        2.56833327       1.33321430       7.29300193       0.00000000 NULL
P        1.27737519      -0.36891528       5.62278704       0.00000000 NULL
P        3.85929135      -0.96429901       7.93198194       0.00000000 NULL
P        1.33346020       0.32401227       3.52946918       0.00000000 NULL
P        0.04250212      -3.12362923       8.37854802       0.00000000 NULL
P        2.62441828       2.79961697       8.93975371       0.00000000 NULL
P        0.74561180       3.10736647       7.69631287       0.00000000 NULL
P        3.32752796      -0.90671384       3.88467072       0.00000000 NULL
P        2.03656988      -2.20065261       9.26678732       0.00000000 NULL
P        2.25460126      10.71791553       1.96539654       0.00000000 NULL
P        0.96364318       2.36135865       0.15920007       0.00000000 NULL
P        3.54555934       4.97542506       8.29928885       0.00000000 NULL
