12
Lattice="7.026419879568117 3.4135383805636927e-07 2.669042005685476e-07 -2.739286514683311 6.4704625579988 -1.6154858758082555e-14 -2.5300423970193426 -2.9791645502911206 5.839010222252017" Properties=species:S:1:pos:R:3:initial_magmoms:R:1:castep_labels:S:1 n_minim_iter=1 pbc="T T T"
P        3.93723033       4.36651286       1.07180721       0.00000000 NULL
P        1.90873506       1.07111492       0.95249741       0.00000000 NULL
P       -0.83359865       2.88810231       3.99131218       0.00000000 NULL
P        4.14952164      -0.42963908       3.87200266       0.00000000 NULL
P       -0.12260019       0.49903007       1.24421895       0.00000000 NULL
P       -4.40281386       2.49937237       5.56084153       0.00000000 NULL
P       -3.14200572       1.66399902       4.16372404       0.00000000 NULL
P       -1.38340833       1.33440342       2.64133645       0.00000000 NULL
P        3.53985818       3.11546607       2.82646599       0.00000000 NULL
P        4.04039148       1.17307722       1.44998585       0.00000000 NULL
P        2.90282932      -2.72870263       5.74597106       0.00000000 NULL
P        2.14737795       4.03808136       4.36949101       0.00000000 NULL
12
Lattice="7.044103139640011 -0.004208505111254058 0.0007559836898924958 -2.7500562531004804 6.4851058093595215 -0.0007557163552927729 -2.5339971729708 -2.9840517836576947 5.8560823597980765" Properties=species:S:1:pos:R:3:initial_magmoms:R:1:castep_labels:S:1 n_minim_iter=2 pbc="T T T"
P        3.94452830       4.37283780       1.07508744       0.00000000 NULL
P        1.91306492       1.07210083       0.95533919       0.00000000 NULL
P       -0.83702671       2.89422839       4.00275063       0.00000000 NULL
P        4.16062276      -0.43334155       3.88375837       0.00000000 NULL
P       -0.12282014       0.49989264       1.24807533       0.00000000 NULL
P       -4.41462022       2.50647807       5.57680547       0.00000000 NULL
P       -3.15024805       1.66874330       4.17573863       0.00000000 NULL
P       -1.38719231       1.33762741       2.64914217       0.00000000 NULL
P        3.54708639       3.11967514       2.83468744       0.00000000 NULL
P        4.04974976       1.17289354       1.45432575       0.00000000 NULL
P        2.91209224      -2.73633068       5.76310643       0.00000000 NULL
P        2.15074674       4.04484757       4.38198912       0.00000000 NULL
12
Lattice="7.433379168443201 -0.10063838306889115 0.017996606272817663 -2.990617538205991 6.805987121360295 -0.01799632967967972 -2.6189531372757773 -3.0892552088943086 6.234032767230386" Properties=species:S:1:pos:R:3:initial_magmoms:R:1:castep_labels:S:1 n_minim_iter=3 pbc="T T T"
P        4.10280864       4.50800320       1.14779119       0.00000000 NULL
P        2.00789476       1.09221758       1.01820371       0.00000000 NULL
P       -0.91383477       3.02806723       4.25580927       0.00000000 NULL
P        4.40558503      -0.51710165       4.14421840       0.00000000 NULL
P       -0.12763688       0.51846803       1.33373983       0.00000000 NULL
P       -4.67509106       2.66367421       5.93006521       0.00000000 NULL
P       -3.33199013       1.77377614       4.44175803       0.00000000 NULL
P       -1.47073781       1.40836609       2.82204701       0.00000000 NULL
P        3.70452634       3.20903065       3.01669054       0.00000000 NULL
P        4.25513398       1.16612701       1.55036586       0.00000000 NULL
P        3.11770308      -2.90474003       6.14270504       0.00000000 NULL
P        2.22300410       4.19064248       4.65838412       0.00000000 NULL
12
Lattice="7.514671654962372 -0.15485515450088866 0.049951674458765596 -3.0722367726486715 6.859710740343658 -0.04995139788596999 -2.598682046727396 -3.102331402722821 6.33396849204732" Properties=species:S:1:pos:R:3:initial_magmoms:R:1:castep_labels:S:1 n_minim_iter=4 pbc="T T T"
P        4.11767914       4.49803188       1.17113901       0.00000000 NULL
P        2.02584352       1.07973421       1.03789940       0.00000000 NULL
P       -0.92985589       3.03809127       4.31314742       0.00000000 NULL
P        4.47469651      -0.56265659       4.22985948       0.00000000 NULL
P       -0.12566968       0.51603730       1.35761084       0.00000000 NULL
P       -4.71627994       2.69209203       6.00290836       0.00000000 NULL
P       -3.35965889       1.79323594       4.49961936       0.00000000 NULL
P       -1.48229073       1.41489339       2.86089983       0.00000000 NULL
P        3.73198157       3.19089847       3.07188728       0.00000000 NULL
P        4.29847815       1.13664000       1.58753376       0.00000000 NULL
P        3.19572255      -2.95684703       6.26384718       0.00000000 NULL
P        2.23605512       4.18205410       4.72954236       0.00000000 NULL
12
Lattice="7.539548554732262 -0.21985980620286943 0.0959190392102779 -3.1417963942308873 6.857276880312631 -0.0959187654192958 -2.5418787468125417 -3.0914455896690805 6.394071301467492" Properties=species:S:1:pos:R:3:initial_magmoms:R:1:castep_labels:S:1 n_minim_iter=5 pbc="T T T"
P        4.09591480       4.44094092       1.18923653       0.00000000 NULL
P        2.02824304       1.05261178       1.05267980       0.00000000 NULL
P       -0.93682801       3.01717820       4.33831266       0.00000000 NULL
P        4.51910712      -0.61507110       4.29767497       0.00000000 NULL
P       -0.12159954       0.50673178       1.37282336       0.00000000 NULL
P       -4.71391460       2.69713360       6.02675381       0.00000000 NULL
P       -3.35588105       1.79734163       4.52189960       0.00000000 NULL
P       -1.47963310       1.40652374       2.87767757       0.00000000 NULL
P        3.73142607       3.13378886       3.11194083       0.00000000 NULL
P        4.31149443       1.08844953       1.62168695       0.00000000 NULL
P        3.26659560      -2.99484968       6.35693581       0.00000000 NULL
P        2.23444615       4.12564249       4.77076326       0.00000000 NULL
12
Lattice="7.545873344312258 -0.3170518925336723 0.15524984105654444 -3.233764017947675 6.825210384343088 -0.1552495725974307 -2.4536428638525503 -3.056906555111075 6.457537297925106" Properties=species:S:1:pos:R:3:initial_magmoms:R:1:castep_labels:S:1 n_minim_iter=6 pbc="T T T"
P        4.04452535       4.33762369       1.20988154       0.00000000 NULL
P        2.02206642       1.00806762       1.06849535       0.00000000 NULL
P       -0.94922879       2.97675798       4.36102527       0.00000000 NULL
P        4.56217770      -0.68797323       4.37488892       0.00000000 NULL
P       -0.11752440       0.49142780       1.38961216       0.00000000 NULL
P       -4.69867327       2.69963906       6.04403068       0.00000000 NULL
P       -3.34206514       1.80079153       4.54075600       0.00000000 NULL
P       -1.47413253       1.39027533       2.89288685       0.00000000 NULL
P        3.71167611       3.03624312       3.15747343       0.00000000 NULL
P        4.31215989       1.01263714       1.66258722       0.00000000 NULL
P        3.35318244      -3.03458952       6.46386682       0.00000000 NULL
P        2.21701070       4.02656322       4.81373113       0.00000000 NULL
12
Lattice="7.55204773054 -0.42778801315306125 0.20126229113963837 -3.338145384662176 6.787725171588096 -0.20126202879459948 -2.370677882229269 -3.005231493163861 6.527281522164613" Properties=species:S:1:pos:R:3:initial_magmoms:R:1:castep_labels:S:1 n_minim_iter=7 pbc="T T T"
P        3.98181857       4.22138732       1.22959605       0.00000000 NULL
P        2.01210512       0.95916134       1.08194575       0.00000000 NULL
P       -0.97555124       2.93869211       4.39260566       0.00000000 NULL
P        4.59879705      -0.76337494       4.44621765       0.00000000 NULL
P       -0.11770208       0.47629936       1.40828695       0.00000000 NULL
P       -4.69809240       2.71450036       6.07742263       0.00000000 NULL
P       -3.33891118       1.81394798       4.57129668       0.00000000 NULL
P       -1.47688330       1.37685174       2.91441290       0.00000000 NULL
P        3.68066934       2.92959493       3.20344364       0.00000000 NULL
P        4.30853756       0.92893921       1.69917944       0.00000000 NULL
P        3.43477025      -3.06809996       6.56771537       0.00000000 NULL
P        2.18375877       3.92140261       4.86218923       0.00000000 NULL
12
Lattice="7.558626170954672 -0.6136825049216202 0.25794718909771963 -3.511895824426268 6.721311156124087 -0.2579469371603127 -2.247122757952351 -2.905559579418455 6.63958849648029" Properties=species:S:1:pos:R:3:initial_magmoms:R:1:castep_labels:S:1 n_minim_iter=8 pbc="T T T"
P        3.87026331       4.02606500       1.25885138       0.00000000 NULL
P        1.99222847       0.87849485       1.09910260       0.00000000 NULL
P       -1.03144364       2.88188856       4.44967203       0.00000000 NULL
P        4.64681267      -0.88288829       4.54787044       0.00000000 NULL
P       -0.12302834       0.45302358       1.43914829       0.00000000 NULL
P       -4.71085504       2.74976129       6.14387685       0.00000000 NULL
P       -3.34465120       1.84455594       4.62996905       0.00000000 NULL
P       -1.48923218       1.35822893       2.95305610       0.00000000 NULL
P        3.61928131       2.75345978       3.27409467       0.00000000 NULL
P        4.29686181       0.79041258       1.75073765       0.00000000 NULL
P        3.55451724      -3.11216752       6.72286234       0.00000000 NULL
P        2.11450313       3.75048031       4.94155847       0.00000000 NULL
12
Lattice="7.563644527140814 -0.7072955811725521 0.2730968842338193 -3.600058304884448 6.6894368902251555 -0.2730966374727185 -2.1966487896236937 -2.8487140449735353 6.696501315260593" Properties=species:S:1:pos:R:3:initial_magmoms:R:1:castep_labels:S:1 n_minim_iter=9 pbc="T T T"
P        3.81185987       3.93009775       1.27202148       0.00000000 NULL
P        1.98174806       0.83952634       1.10445092       0.00000000 NULL
P       -1.06782696       2.86008253       4.48372369       0.00000000 NULL
P        4.66478609      -0.93917250       4.58925002       0.00000000 NULL
P       -0.12935580       0.44298530       1.45549446       0.00000000 NULL
P       -4.72842521       2.77563342       6.18720268       0.00000000 NULL
P       -3.35671824       1.86678186       4.66719678       0.00000000 NULL
P       -1.50106278       1.35183687       2.97550036       0.00000000 NULL
P        3.58426670       2.66855917       3.30709058       0.00000000 NULL
P        4.28974286       0.72265349       1.77099817       0.00000000 NULL
P        3.60522365      -3.12795189       6.79188952       0.00000000 NULL
P        2.07213712       3.67045051       4.98270055       0.00000000 NULL
12
Lattice="7.57377845448285 -1.0529647900094687 0.3331497595880774 -3.9223275947516436 6.564008022352416 -0.33314953225959665 -2.003831474810176 -2.637514212681592 6.900001586040726" Properties=species:S:1:pos:R:3:initial_magmoms:R:1:castep_labels:S:1 n_minim_iter=10 pbc="T T T"
P        3.58782696       3.57128724       1.32097751       0.00000000 NULL
P        1.94309805       0.69447307       1.11971398       0.00000000 NULL
P       -1.20160869       2.77806066       4.60440342       0.00000000 NULL
P        4.72870222      -1.14981457       4.73628966       0.00000000 NULL
P       -0.15359902       0.40525984       1.51669593       0.00000000 NULL
P       -4.78229351       2.86511320       6.33611949       0.00000000 NULL
P       -3.39615510       1.94669980       4.80012193       0.00000000 NULL
P       -1.53973743       1.32367324       3.05269348       0.00000000 NULL
P        3.45287237       2.34959824       3.42818460       0.00000000 NULL
P        4.26078719       0.46994794       1.84701311       0.00000000 NULL
P        3.79313033      -3.18538913       7.04476012       0.00000000 NULL
P        1.91669776       3.36742109       5.13043918       0.00000000 NULL
12
Lattice="7.594356181932361 -1.3429816233453413 0.26620293684095736 -4.197419515170022 6.469892965495043 -0.2662027253577739 -1.9439087767267056 -2.4008345351968186 7.071486524391559" Properties=species:S:1:pos:R:3:initial_magmoms:R:1:castep_labels:S:1 n_minim_iter=11 pbc="T T T"
P        3.36618598       3.29219486       1.35451409       0.00000000 NULL
P        1.91459420       0.58653854       1.09185146       0.00000000 NULL
P       -1.39310588       2.77812060       4.75715588       0.00000000 NULL
P        4.72997729      -1.30022173       4.76069619       0.00000000 NULL
P       -0.21243169       0.38950147       1.58352680       0.00000000 NULL
P       -4.91406007       3.00715686       6.53962703       0.00000000 NULL
P       -3.51216443       2.07830320       4.98616869       0.00000000 NULL
P       -1.61432732       1.31835513       3.13698514       0.00000000 NULL
P        3.30315536       2.11322569       3.50860798       0.00000000 NULL
P        4.22723559       0.27498341       1.85910946       0.00000000 NULL
P        3.86542531      -3.17410175       7.17745257       0.00000000 NULL
P        1.72105686       3.16147632       5.26175140       0.00000000 NULL
12
Lattice="7.332012301439251 -1.3148197472999825 0.21765430554098447 -4.069209772547134 6.239285798212694 -0.2176541024085939 -1.9017299215949122 -2.2831217007309053 6.834128134446207" Properties=species:S:1:pos:R:3:initial_magmoms:R:1:castep_labels:S:1 n_minim_iter=12 pbc="T T T"
P        3.21037890       3.16720915       1.30848219       0.00000000 NULL
P        1.85130279       0.56537379       1.02754836       0.00000000 NULL
P       -1.38769157       2.71143351       4.61671910       0.00000000 NULL
P        4.54764333      -1.26197228       4.55343958       0.00000000 NULL
P       -0.22796013       0.37777132       1.54399943       0.00000000 NULL
P       -4.76595409       2.93104515       6.34124306       0.00000000 NULL
P       -3.42222196       2.04072887       4.85223643       0.00000000 NULL
P       -1.57169227       1.26808760       3.03300606       0.00000000 NULL
P        3.16472029       2.02720867       3.38934473       0.00000000 NULL
P        4.08031060       0.25875289       1.78199022       0.00000000 NULL
P        3.71351712      -3.04137129       6.91523582       0.00000000 NULL
P        1.62978385       3.04421114       5.09022727       0.00000000 NULL
12
Lattice="7.533162349966313 -1.3748519072004397 0.1723911050076914 -4.202911364779606 6.4011162221110505 -0.1723908976761602 -1.9863199141781738 -2.3003187210332303 7.0307566044467515" Properties=species:S:1:pos:R:3:initial_magmoms:R:1:castep_labels:S:1 n_minim_iter=13 pbc="T T T"
P        3.27168596       3.23150781       1.34027881       0.00000000 NULL
P        1.89583703       0.57743545       1.04560882       0.00000000 NULL
P       -1.46469913       2.80402509       4.76946157       0.00000000 NULL
P        4.64590221      -1.29540056       4.64718267       0.00000000 NULL
P       -0.24931668       0.39595423       1.59573245       0.00000000 NULL
P       -4.94127461       3.04317452       6.55947039       0.00000000 NULL
P       -3.55643792       2.12562360       5.02491529       0.00000000 NULL
P       -1.63415337       1.31350514       3.13028755       0.00000000 NULL
P        3.21878751       2.07556702       3.47473443       0.00000000 NULL
P        4.17874660       0.25583807       1.80705293       0.00000000 NULL
P        3.78206771      -3.09772872       7.07630815       0.00000000 NULL
P        1.62914649       3.12881509       5.23623581       0.00000000 NULL
