8
Lattice="2.9459599999999995 1.0492874870987283e-15 5.26240682890032e-16 1.2583860844906507 6.270048856967566 -5.557333397020415e-16 0.8815859334720947 1.0027034681831128 9.906473019112182" Properties=species:S:1:pos:R:3:initial_magmoms:R:1:castep_labels:S:1 n_minim_iter=1 pbc="T T T"
P        2.20525145       2.13593788       8.85906955       0.00000000 NULL
P        3.42294247       1.38912151       5.28860133       0.00000000 NULL
P        1.86035190       5.90730842       6.51507321       0.00000000 NULL
P        1.21838704       3.13846123       3.55164196       0.00000000 NULL
P        1.95006901       1.44317527       6.70997515       0.00000000 NULL
P        1.59385912       1.06665359       1.28727286       0.00000000 NULL
P        0.76942019       2.66857383       0.24662462       0.00000000 NULL
P        3.20048432       3.60127542       7.80318515       0.00000000 NULL
8
Lattice="2.94791986359919 0.00013078082657755322 0.0002068310330759686 1.259501601080462 6.273251693190543 0.0006944989256880428 0.8829124581423705 1.0042035638954112 9.916485951502901" Properties=species:S:1:pos:R:3:initial_magmoms:R:1:castep_labels:S:1 n_minim_iter=2 pbc="T T T"
P        2.20736842       2.13775205       8.86827231       0.00000000 NULL
P        3.42569041       1.39056016       5.29377438       0.00000000 NULL
P        1.86228296       5.91089050       6.52229129       0.00000000 NULL
P        1.21955875       3.14036628       3.55559373       0.00000000 NULL
P        1.95188746       1.44461473       6.71714994       0.00000000 NULL
P        1.59512852       1.06734315       1.28887405       0.00000000 NULL
P        0.76996923       2.67021821       0.24729774       0.00000000 NULL
P        3.20344546       3.60409033       7.81144187       0.00000000 NULL
8
Lattice="3.0243667691256055 0.005374789054384759 0.008681285513472078 1.3033175082589388 6.396885037397764 0.02989015844682067 0.93607158334044 1.0655948527258228 10.312727911242652" Properties=species:S:1:pos:R:3:initial_magmoms:R:1:castep_labels:S:1 n_minim_iter=3 pbc="T T T"
P        2.29116743       2.21079012       9.23294753       0.00000000 NULL
P        3.53370603       1.44814488       5.49854718       0.00000000 NULL
P        1.93875393       6.05143123       6.80939263       0.00000000 NULL
P        1.26585735       3.21505924       3.71281768       0.00000000 NULL
P        2.02380726       1.50260375       7.00155051       0.00000000 NULL
P        1.64496832       1.09455019       1.35267829       0.00000000 NULL
P        0.79147696       2.73402848       0.27483507       0.00000000 NULL
P        3.32034151       3.71569284       8.13913656       0.00000000 NULL
8
Lattice="3.031397788338979 0.008171997533449132 0.017432442554530764 1.3122743069136236 6.361706339649846 0.10129459278710706 0.9685555000918337 1.1675256659414188 10.46230716194368" Properties=species:S:1:pos:R:3:initial_magmoms:R:1:castep_labels:S:1 n_minim_iter=4 pbc="T T T"
P        2.32242918       2.29381241       9.38732287       0.00000000 NULL
P        3.56103993       1.50117711       5.58476035       0.00000000 NULL
P        1.96727809       6.08992130       6.96855032       0.00000000 NULL
P        1.28098157       3.23337519       3.80116278       0.00000000 NULL
P        2.04895980       1.56696738       7.11778838       0.00000000 NULL
P        1.65566240       1.10571147       1.38664480       0.00000000 NULL
P        0.79440308       2.72506305       0.31297302       0.00000000 NULL
P        3.35790985       3.78231807       8.29459340       0.00000000 NULL
8
Lattice="3.020085130787262 0.018269014395989897 0.03417328157984641 1.3289320681174603 6.277816874557123 0.24743811065600388 1.0249017859138274 1.3760456400099346 10.766667087516446" Properties=species:S:1:pos:R:3:initial_magmoms:R:1:castep_labels:S:1 n_minim_iter=5 pbc="T T T"
P        2.36311096       2.46381854       9.70606184       0.00000000 NULL
P        3.58852569       1.61301861       5.75571831       0.00000000 NULL
P        2.01508818       6.15889297       7.29480987       0.00000000 NULL
P        1.30384311       3.26539582       3.98263585       0.00000000 NULL
P        2.08216065       1.69821332       7.35094861       0.00000000 NULL
P        1.66717414       1.12853257       1.45411204       0.00000000 NULL
P        0.79630099       2.70212628       0.39203310       0.00000000 NULL
P        3.41213988       3.91610334       8.60921378       0.00000000 NULL
8
Lattice="2.9742192209387692 0.033712686411533306 0.046859062502098474 1.3422097620992512 6.2515466917221225 0.2993840820894075 1.05909166933919 1.4489225068657345 11.016118310855243" Properties=species:S:1:pos:R:3:initial_magmoms:R:1:castep_labels:S:1 n_minim_iter=6 pbc="T T T"
P        2.36424826       2.52831519       9.96158995       0.00000000 NULL
P        3.57124806       1.66904414       5.88337139       0.00000000 NULL
P        2.04287282       6.18521880       7.50970930       0.00000000 NULL
P        1.31342032       3.27578778       4.10304501       0.00000000 NULL
P        2.08566671       1.74619805       7.52708860       0.00000000 NULL
P        1.66385038       1.14081980       1.49766129       0.00000000 NULL
P        0.79180525       2.70041070       0.42713861       0.00000000 NULL
P        3.42798779       3.97218571       8.83235102       0.00000000 NULL
8
Lattice="2.9331393029656136 0.04106881417477882 0.053219071330971514 1.3403186581277873 6.215301266220292 0.3308898315859187 1.0706891767228148 1.4903107219867173 11.119479112622525" Properties=species:S:1:pos:R:3:initial_magmoms:R:1:castep_labels:S:1 n_minim_iter=7 pbc="T T T"
P        2.35067985       2.56222440      10.07156611       0.00000000 NULL
P        3.54169306       1.69571308       5.93742926       0.00000000 NULL
P        2.04461237       6.18281667       7.60741104       0.00000000 NULL
P        1.31032478       3.27248434       4.15831548       0.00000000 NULL
P        2.07501130       1.77110343       7.60034420       0.00000000 NULL
P        1.65264445       1.14354909       1.51726633       0.00000000 NULL
P        0.78455635       2.68964980       0.44674439       0.00000000 NULL
P        3.41561989       3.99168286       8.92955655       0.00000000 NULL
8
Lattice="2.904912511998405 0.04678398345780834 0.05887165620676165 1.3404253091574936 6.210579354712642 0.34376503732120073 1.0831956118943211 1.5074029810253406 11.23864092438535" Properties=species:S:1:pos:R:3:initial_magmoms:R:1:castep_labels:S:1 n_minim_iter=8 pbc="T T T"
P        2.34435037       2.57924679      10.19007819       0.00000000 NULL
P        3.52438046       1.71210285       5.99796402       0.00000000 NULL
P        2.04987218       6.18996562       7.69943933       0.00000000 NULL
P        1.31029216       3.27470749       4.21032094       0.00000000 NULL
P        2.07065785       1.78375585       7.68294017       0.00000000 NULL
P        1.64690472       1.14625986       1.53721248       0.00000000 NULL
P        0.77950377       2.69202736       0.45807059       0.00000000 NULL
P        3.41243289       4.00540479       9.02997020       0.00000000 NULL
8
Lattice="2.8440620983607894 0.05656517992460584 0.06912445114468584 1.3352505158708647 6.18006074067254 0.37520909911899575 1.1027925539214976 1.547542394815339 11.424993253563397" Properties=species:S:1:pos:R:3:initial_magmoms:R:1:castep_labels:S:1 n_minim_iter=9 pbc="T T T"
P        2.32576964       2.61480427      10.37943683       0.00000000 NULL
P        3.48149501       1.74233765       6.09387286       0.00000000 NULL
P        2.05224977       6.19091945       7.85265005       0.00000000 NULL
P        1.30563973       3.27219189       4.29767005       0.00000000 NULL
P        2.05600492       1.81097797       7.81384189       0.00000000 NULL
P        1.63040408       1.14904308       1.57074042       0.00000000 NULL
P        0.76812268       2.68653486       0.48157646       0.00000000 NULL
P        3.39466936       4.02615749       9.19212425       0.00000000 NULL
8
Lattice="2.7378324910257996 0.07359588610422847 0.09723873278341144 1.3261212337976676 6.168751966023253 0.4040913337040178 1.1713405291529597 1.5763258492020142 11.866086624663522" Properties=species:S:1:pos:R:3:initial_magmoms:R:1:castep_labels:S:1 n_minim_iter=10 pbc="T T T"
P        2.32046600       2.64773882      10.81552375       0.00000000 NULL
P        3.42618095       1.78069867       6.32057285       0.00000000 NULL
P        2.07902275       6.19778516       8.17481203       0.00000000 NULL
P        1.30906314       3.26888281       4.48433488       0.00000000 NULL
P        2.05218469       1.84112573       8.12497741       0.00000000 NULL
P        1.60888784       1.15107185       1.65089570       0.00000000 NULL
P        0.74816040       2.69850205       0.51572142       0.00000000 NULL
P        3.39313456       4.04600017       9.55484291       0.00000000 NULL
8
Lattice="2.6640209709234086 0.08062746354662949 0.1290412098219964 1.3095578535526717 6.014237677463739 0.4714528807570163 1.2585887504327855 1.6382056453000537 11.841754352292673" Properties=species:S:1:pos:R:3:initial_magmoms:R:1:castep_labels:S:1 n_minim_iter=11 pbc="T T T"
P        2.35420684       2.68187925      10.82972355       0.00000000 NULL
P        3.40772439       1.80099136       6.32781247       0.00000000 NULL
P        2.11642959       6.10632503       8.21443708       0.00000000 NULL
P        1.32041620       3.21464744       4.51856416       0.00000000 NULL
P        2.07460926       1.88005853       8.13492957       0.00000000 NULL
P        1.59312555       1.13690603       1.67877033       0.00000000 NULL
P        0.73627369       2.63940547       0.55118054       0.00000000 NULL
P        3.41349512       4.01924958       9.57196966       0.00000000 NULL
8
Lattice="2.706239439986297 0.08240955814123326 0.13519923356391392 1.3313846788161299 6.074495695880561 0.432461644277896 1.2925370786312518 1.5824927477213242 11.988969823292695" Properties=species:S:1:pos:R:3:initial_magmoms:R:1:castep_labels:S:1 n_minim_iter=12 pbc="T T T"
P        2.40103699       2.64155346      10.95973343       0.00000000 NULL
P        3.47039353       1.78418489       6.39890431       0.00000000 NULL
P        2.16040741       6.11695841       8.28006976       0.00000000 NULL
P        1.34630903       3.21927178       4.55700048       0.00000000 NULL
P        2.11592880       1.85433053       8.23472553       0.00000000 NULL
P        1.62297064       1.13608473       1.70071745       0.00000000 NULL
P        0.74727522       2.66875498       0.53868276       0.00000000 NULL
P        3.48149351       4.00346978       9.66760058       0.00000000 NULL
