12
Lattice="5.136743932245568 -7.607415279128382e-16 0.0 -2.568371966122783 4.448550738060232 0.0 0.0 0.0 11.036222306276777" Properties=species:S:1:pos:R:3:initial_magmoms:R:1:castep_labels:S:1:forces:R:3 n_minim_iter=1 energy=-60.943629154459 stress="-0.003603600308353413 0.0 0.0 0.0 -0.003603600308353413 -0.0 0.0 -0.0 0.002779656263994699" free_energy=-60.943629154459 pbc="T T T"
P        1.76458398      -0.12879878       0.46357640       0.00000000 NULL      -0.13528200       0.17683800      -1.32710500
P        4.36599495       1.59257396       4.14231717       0.00000000 NULL      -0.08550500      -0.20557500      -1.32710600
P        1.57453695       2.98477558       7.82105794       0.00000000 NULL       0.22078600       0.02873900      -1.32710600
P        2.90989016       1.58596503      10.71047311       0.00000000 NULL       0.68471100      -0.04220800      -0.17226400
P        2.30831285       1.72705630       3.35299157       0.00000000 NULL      -0.30580300       0.61407900      -0.17226500
P        2.48691288       1.13552943       7.03173234       0.00000000 NULL      -0.37890800      -0.57187300      -0.17226400
P        1.91114655       3.35368439       9.87119077       0.00000000 NULL      -0.11322100       0.17766900       0.89678300
P        1.27679478      -0.02174072       2.51370923       0.00000000 NULL      -0.09725500      -0.18688500       0.89678400
P        4.51717456       1.11660709       6.19245000       0.00000000 NULL       0.21047600       0.00921700       0.89678400
P       -0.45709071       3.18844574       6.98693211       0.00000000 NULL       0.19100300       0.35822000       0.60258600
P        0.03564231       2.45847572      10.66567288       0.00000000 NULL      -0.40572900      -0.01369700       0.60258600
P        0.42144838       3.25018004       3.30819134       0.00000000 NULL       0.21472600      -0.34452400       0.60258700
12
Lattice="5.277399715245327 -8.506379966144689e-16 0.0 -2.638699857622662 4.570362219327214 0.0 0.0 0.0 10.80863480297171" Properties=species:S:1:pos:R:3:initial_magmoms:R:1:castep_labels:S:1:forces:R:3 n_minim_iter=2 energy=-61.22515199646 stress="0.013917170628026235 -0.0 -0.0 -0.0 0.013917132269798271 -0.0 -0.0 -0.0 0.015612259079971153" free_energy=-61.22515199646 pbc="T T T"
P        1.80877092      -0.12692510       0.41538142       0.00000000 NULL      -0.06358200       0.18560100      -1.17810900
P        4.48293461       1.62990413       4.01825969       0.00000000 NULL      -0.12894600      -0.14786500      -1.17810900
P        1.62439402       3.06738321       7.62113796       0.00000000 NULL       0.19252700      -0.03773800      -1.17810900
P        3.01048017       1.62810339      10.48458814       0.00000000 NULL       0.46273100       0.04306800      -0.22464800
P        2.36218073       1.79310062       3.27883160       0.00000000 NULL      -0.26866100       0.37920400      -0.22464700
P        2.54343866       1.14915823       6.88170987       0.00000000 NULL      -0.19406600      -0.42227000      -0.22464900
P        1.96002044       3.45094180       9.69373587       0.00000000 NULL      -0.21996900      -0.39133200       0.88172400
P        1.30878622      -0.02804340       2.48797934       0.00000000 NULL       0.44888700       0.00516600       0.88172300
P        4.64729290       1.14746383       6.09085761       0.00000000 NULL      -0.22892000       0.38616400       0.88172300
P       -0.46377380       3.28669245       6.86039124       0.00000000 NULL       0.45386400       0.07020800       0.52103400
P        0.02422760       2.52537612      10.46326950       0.00000000 NULL      -0.28773400       0.35795500       0.52103400
P        0.43954619       3.32865589       3.25751297       0.00000000 NULL      -0.16613000      -0.42816200       0.52103400
12
Lattice="5.4074314925055385 -2.1773530311092453e-15 0.0 -2.703715746252766 4.682973041733798 0.0 0.0 0.0 9.71255065985505" Properties=species:S:1:pos:R:3:initial_magmoms:R:1:castep_labels:S:1:forces:R:3 n_minim_iter=3 energy=-61.930467500036 stress="0.017724857802639146 -0.0 0.0 -0.0 0.01772489846139146 0.0 0.0 0.0 -0.013245808329878242" free_energy=-61.930467500036 pbc="T T T"
P        1.84134454      -0.11295245       0.26910456       0.00000000 NULL      -0.17696800       0.23524800      -1.51149600
P        4.58457891       1.65112738       3.50662144       0.00000000 NULL      -0.11524600      -0.27088400      -1.51149600
P        1.68522378       3.14479812       6.74413833       0.00000000 NULL       0.29221600       0.03563500      -1.51149600
P        3.14731528       1.66535005       9.40705198       0.00000000 NULL       0.21688900       0.24835400      -0.17249000
P        2.39153840       1.89297997       2.93201820       0.00000000 NULL      -0.32352600       0.06365600      -0.17249000
P        2.57229355       1.12464303       6.16953509       0.00000000 NULL       0.10663300      -0.31201000      -0.17248900
P        1.99596204       3.54513135       8.78204003       0.00000000 NULL       0.08978300      -0.77495800       1.37233000
P        1.33927666      -0.04401184       2.30700626       0.00000000 NULL       0.62624200       0.46523300       1.37233000
P        4.77590853       1.18185354       5.54452315       0.00000000 NULL      -0.71602300       0.30972500       1.37233000
P       -0.45321399       3.39807003       6.21182973       0.00000000 NULL       0.42162100      -0.14462200       0.31165500
P       -0.01249223       2.59144321       9.44934662       0.00000000 NULL      -0.08556400       0.43744600       0.31165600
P        0.46570621       3.37643286       2.97431284       0.00000000 NULL      -0.33605700      -0.29282300       0.31165500
12
Lattice="5.375021236709355 -1.4152210471109547e-15 0.0 -2.6875106183546746 4.654904936871151 0.0 0.0 0.0 9.64763862237832" Properties=species:S:1:pos:R:3:initial_magmoms:R:1:castep_labels:S:1:forces:R:3 n_minim_iter=4 energy=-62.346543042292 stress="0.01087387122410478 -0.0 -0.0 -0.0 0.010873912651532485 0.0 -0.0 0.0 0.009852270856890425" free_energy=-62.346543042292 pbc="T T T"
P        1.82145339      -0.10049207       0.19846432       0.00000000 NULL      -0.57370400       0.36671900      -0.38506700
P        4.55132322       1.62767096       3.41434386       0.00000000 NULL      -0.03073600      -0.68020300      -0.38506700
P        1.68975523       3.12772607       6.63022340       0.00000000 NULL       0.60444100       0.31348300      -0.38506700
P        3.16592992       1.65609043       9.33533835       0.00000000 NULL       0.00893500       0.27876600      -0.21382600
P        2.35783989       1.91373053       2.90357927       0.00000000 NULL      -0.24588600      -0.13164400      -0.21382600
P        2.53876203       1.08508399       6.11945881       0.00000000 NULL       0.23695000      -0.14712200      -0.21382500
P        1.97897118       3.52352071       8.77270780       0.00000000 NULL       0.18153000      -0.95933000       0.37666600
P        1.33407720      -0.04792103       2.34094872       0.00000000 NULL       0.74003900       0.63687400       0.37666600
P        4.74948347       1.17930527       5.55682826       0.00000000 NULL      -0.92156800       0.32245600       0.37666700
P       -0.43549537       3.39415775       6.19863827       0.00000000 NULL       0.13456900      -0.28936500       0.22222600
P       -0.03416853       2.58067602       9.41451781       0.00000000 NULL       0.18331300       0.26122400       0.22222600
P        0.46966389       3.33497612       2.98275872       0.00000000 NULL      -0.31788200       0.02814200       0.22222600
12
Lattice="5.4636305042385915 -9.523964093982172e-16 0.0 -2.7318152521192935 4.731642813562201 0.0 0.0 0.0 9.342174861234776" Properties=species:S:1:pos:R:3:initial_magmoms:R:1:castep_labels:S:1:forces:R:3 n_minim_iter=5 energy=-62.74616888719 stress="0.02183571936085745 0.0 -0.0 0.0 0.02183571936085745 0.0 -0.0 0.0 0.017862441745352578" free_energy=-62.74616888719 pbc="T T T"
P        1.77000553      -0.05217962       0.12485693       0.00000000 NULL      -0.06186500      -0.09623800      -0.37141000
P        4.62381661       1.55895957       3.23891521       0.00000000 NULL       0.11427600      -0.00545700      -0.37141000
P        1.80162360       3.22486288       6.35297350       0.00000000 NULL      -0.05241300       0.10169600      -0.37140900
P        3.24865244       1.71276938       9.02144988       0.00000000 NULL      -0.07299000      -0.44099700       0.02591200
P        2.35600249       1.95703086       2.79333330       0.00000000 NULL       0.41841000       0.15728700       0.02591100
P        2.59079082       1.06184259       5.90739159       0.00000000 NULL      -0.34541900       0.28370900       0.02591100
P        2.04144017       3.50262195       8.54642896       0.00000000 NULL      -0.00425500      -0.41092300       0.11850400
P        1.40955083       0.01662808       2.31831238       0.00000000 NULL       0.35799600       0.20177700       0.11850400
P        4.74445474       1.21239280       5.43237067       0.00000000 NULL      -0.35374200       0.20914600       0.11850400
P       -0.44057894       3.44068445       6.03653033       0.00000000 NULL       0.80405900      -0.32942700       0.22699400
P       -0.02761541       2.62974805       9.15058862       0.00000000 NULL      -0.11673900       0.86105000       0.22699300
P        0.46819434       3.39285315       2.92247204       0.00000000 NULL      -0.68732100      -0.53162300       0.22699400
12
Lattice="5.534055392226514 -1.5279299029019084e-15 0.0 -2.767027696113254 4.792632555618418 0.0 0.0 0.0 9.016350406164651" Properties=species:S:1:pos:R:3:initial_magmoms:R:1:castep_labels:S:1:forces:R:3 n_minim_iter=6 energy=-63.193888184414 stress="0.028262061628850175 -4.181687678955361e-08 0.0 -4.181687678955361e-08 0.02826214526260375 0.0 0.0 0.0 0.02815563767742076" free_energy=-63.193888184414 pbc="T T T"
P        1.66386222      -0.02767257       0.03589202       0.00000000 NULL       0.29154800       0.06910200      -0.17331400
P        4.72608943       1.45478325       3.04134216       0.00000000 NULL      -0.20561700       0.21793800      -0.17331400
P        1.91113142       3.36552189       6.04679229       0.00000000 NULL      -0.08593000      -0.28704000      -0.17331400
P        3.31157607       1.65274137       8.70798525       0.00000000 NULL      -0.13503500      -0.24569400      -0.02842100
P        2.44695134       2.04153834       2.69708498       0.00000000 NULL       0.28029400       0.00590300      -0.02842100
P        2.54255566       1.09835287       5.70253511       0.00000000 NULL      -0.14526100       0.23979100      -0.02842000
P        2.14531723       3.48835495       8.27745750       0.00000000 NULL      -0.29411600      -0.19186000       0.25044800
P        1.44039277       0.11372176       2.26655723       0.00000000 NULL       0.31321500      -0.15878400       0.25044900
P        4.71537307       1.19055586       5.27200737       0.00000000 NULL      -0.01909800       0.35064300       0.25044900
P       -0.34841027       3.44262919       5.88033203       0.00000000 NULL       0.55908300      -0.23059900      -0.04871400
P       -0.04017150       2.76958583       8.88578216       0.00000000 NULL      -0.07983700       0.59948000      -0.04871300
P        0.38858176       3.37305011       2.87488189       0.00000000 NULL      -0.47924700      -0.36887900      -0.04871400
12
Lattice="5.511233946689902 -1.4318071768421468e-15 0.0 -2.7556169733449476 4.7728686040326265 0.0 0.0 0.0 8.555725955511509" Properties=species:S:1:pos:R:3:initial_magmoms:R:1:castep_labels:S:1:forces:R:3 n_minim_iter=7 energy=-63.520868115076 stress="0.024449505644562518 -0.0 -0.0 -0.0 0.024449550078496633 0.0 -0.0 0.0 0.036272175797014305" free_energy=-63.520868115076 pbc="T T T"
P        1.56135985       0.07249101      -0.03931528       0.00000000 NULL       0.38808200      -0.58986500       0.05899200
P        4.66777496       1.31593180       2.81259337       0.00000000 NULL       0.31679700       0.63102000       0.05899200
P        2.03771609       3.38444581       5.66450202       0.00000000 NULL      -0.70487700      -0.04115700       0.05899200
P        3.29169728       1.58074241       8.26624759       0.00000000 NULL      -0.09167500       0.27630200      -0.00102600
P        2.49642222       2.06032227       2.56243029       0.00000000 NULL      -0.19344700      -0.21754400      -0.00102600
P        2.47873140       1.13180394       5.41433894       0.00000000 NULL       0.28512200      -0.05875800      -0.00102600
P        2.19581586       3.49771932       7.91658485       0.00000000 NULL      -0.37994700      -0.28180300       0.11620000
P        1.38421223       0.15277267       2.21276755       0.00000000 NULL       0.43402200      -0.18814300       0.11620000
P        4.68682282       1.12237663       5.06467620       0.00000000 NULL      -0.05407500       0.46994600       0.11620000
P       -0.31474159       3.39992296       5.58815635       0.00000000 NULL       0.90436100      -0.32742800      -0.17416600
P       -0.03143189       2.80033293       8.44006500       0.00000000 NULL      -0.16862000       0.94691500      -0.17416500
P        0.34617346       3.34548134       2.73624770       0.00000000 NULL      -0.73574200      -0.61948500      -0.17416600
12
Lattice="5.5789548468142405 -1.4373477032811092e-15 0.0 -2.7894774234071167 4.831516623907453 0.0 0.0 0.0 7.735502828833694" Properties=species:S:1:pos:R:3:initial_magmoms:R:1:castep_labels:S:1:forces:R:3 n_minim_iter=8 energy=-64.153454831601 stress="0.020595603909598626 4.795954682432727e-08 -0.0 4.795954682432727e-08 0.020595603909598626 -0.0 -0.0 -0.0 0.03402279027445871" free_energy=-64.153454831601 pbc="T T T"
P        1.45384346       0.13637227      -0.14190809       0.00000000 NULL       0.61001900      -0.52635200       0.39224800
P        4.73393127       1.19087925       2.43659286       0.00000000 NULL       0.15082400       0.79146800       0.39224600
P        2.18065753       3.50426513       5.01509380       0.00000000 NULL      -0.76084300      -0.26511700       0.39224600
P        3.31845315       1.59198190       7.48249013       0.00000000 NULL      -0.20284000       0.37012800       0.11558500
P        2.54103150       2.07787379       2.32548824       0.00000000 NULL      -0.21912100      -0.36072800       0.11558500
P        2.50894761       1.16166095       4.90398918       0.00000000 NULL       0.42196000      -0.00940000       0.11558500
P        2.30591294       3.56390935       7.26480474       0.00000000 NULL      -0.55686000      -0.01407400      -0.14909600
P        1.33956235       0.21502452       2.10780285       0.00000000 NULL       0.29061900      -0.47521800      -0.14909800
P        4.72295697       1.05258277       4.68630380       0.00000000 NULL       0.26624100       0.48929200      -0.14909700
P       -0.19921391       3.37031060       5.04290726       0.00000000 NULL       0.84732400      -0.12562300      -0.35873500
P       -0.02969022       2.97383703       7.62140821       0.00000000 NULL      -0.31486800       0.79661700      -0.35873500
P        0.22890412       3.31888564       2.46440632       0.00000000 NULL      -0.53245500      -0.67099200      -0.35873400
12
Lattice="5.61836807540376 -1.892554607047871e-15 0.0 -2.8091840377018764 4.8656494811111415 0.0 0.0 0.0 7.497053289375239" Properties=species:S:1:pos:R:3:initial_magmoms:R:1:castep_labels:S:1:forces:R:3 n_minim_iter=9 energy=-64.330159815765 stress="0.018983055299589536 0.0 0.0 0.0 0.018983006506483987 0.0 0.0 0.0 0.01350934713302426" free_energy=-64.330159815765 pbc="T T T"
P        1.44052063       0.19087660      -0.16730440       0.00000000 NULL       0.42629200      -0.72794200       0.43765900
P        4.73280378       1.15208917       2.33171337       0.00000000 NULL       0.41727000       0.73315200       0.43766200
P        2.25422769       3.52268373       4.83073113       0.00000000 NULL      -0.84356400      -0.00520900       0.43766200
P        3.30594347       1.62942535       7.26318010       0.00000000 NULL      -0.17875200       0.27196600       0.12720700
P        2.55427259       2.04831836       2.26514458       0.00000000 NULL      -0.14615200      -0.29078700       0.12720700
P        2.56733604       1.18790579       4.76416234       0.00000000 NULL       0.32490600       0.01882100       0.12720700
P        2.31358341       3.60194269       7.06774467       0.00000000 NULL      -0.56622100       0.18568200      -0.10671400
P        1.34220250       0.20265068       2.06970914       0.00000000 NULL       0.12230500      -0.58320300      -0.10671100
P        4.77176619       1.06105614       4.56872691       0.00000000 NULL       0.44391600       0.39752200      -0.10671400
P       -0.11418466       3.39402342       4.87900804       0.00000000 NULL       0.55272500      -0.29086300      -0.45815500
P       -0.07303413       3.06975097       7.37802580       0.00000000 NULL      -0.02446700       0.62410400      -0.45815500
P        0.18721878       3.26752459       2.37999028       0.00000000 NULL      -0.52825700      -0.33324300      -0.45815500
12
Lattice="5.578606695012989 -2.1812172157180264e-15 0.0 -2.789303347506491 4.8312151156031975 0.0 0.0 0.0 7.425024435934301" Properties=species:S:1:pos:R:3:initial_magmoms:R:1:castep_labels:S:1:forces:R:3 n_minim_iter=10 energy=-64.520319691232 stress="0.010952793286896327 4.997122613579732e-08 -0.0 4.997122613579732e-08 0.01095274331567019 0.0 -0.0 0.0 0.008633178940898751" free_energy=-64.520319691232 pbc="T T T"
P        1.37225799       0.18952280      -0.17346344       0.00000000 NULL       0.66835400      -0.50199300       0.47368400
P        4.72834614       1.09364889       2.30154471       0.00000000 NULL       0.10056200       0.82980900       0.47368900
P        2.26730590       3.54804344       4.77655285       0.00000000 NULL      -0.76891700      -0.32781600       0.47368900
P        3.25774957       1.65731656       7.19882509       0.00000000 NULL      -0.46566800       0.20870600       0.15039100
P        2.51445366       1.99263562       2.24880880       0.00000000 NULL       0.05209000      -0.50763300       0.15039200
P        2.59570680       1.18126296       4.72381695       0.00000000 NULL       0.41357900       0.29892600       0.15039100
P        2.23410079       3.63199950       7.01341380       0.00000000 NULL      -0.18729100       0.03524200      -0.14571700
P        1.31615247       0.11878830       2.06339751       0.00000000 NULL       0.06312400      -0.17981900      -0.14571200
P        4.81765678       1.08042733       4.53840566       0.00000000 NULL       0.12416500       0.14457800      -0.14571700
P       -0.06990433       3.33691369       4.82089841       0.00000000 NULL       0.41364300       0.10373500      -0.47836300
P       -0.06559651       3.10221935       7.29590655       0.00000000 NULL      -0.29665700       0.30635700      -0.47836400
P        0.13550083       3.22329721       2.34589026       0.00000000 NULL      -0.11698500      -0.41009400      -0.47836200
12
Lattice="5.548978292613551 -1.806411167228699e-15 0.0 -2.7744891463067725 4.805556166451736 0.0 0.0 0.0 7.394031142286574" Properties=species:S:1:pos:R:3:initial_magmoms:R:1:castep_labels:S:1:forces:R:3 n_minim_iter=11 energy=-64.721651148259 stress="-0.00666814856003978 0.0 -0.0 0.0 -0.00666814856003978 0.0 -0.0 0.0 0.004165925495897375" free_energy=-64.721651148259 pbc="T T T"
P        1.36517671       0.15662918      -0.16943226       0.00000000 NULL       0.43967200      -0.29605900       0.40575600
P        4.73074508       1.10396314       2.29524479       0.00000000 NULL       0.03655800       0.52879800       0.40575700
P        2.22754563       3.54496386       4.75992183       0.00000000 NULL      -0.47623300      -0.23273800       0.40575700
P        3.15975275       1.67935290       7.17027035       0.00000000 NULL      -0.09437500      -0.08412000       0.20112900
P        2.51473964       1.89674972       2.24091625       0.00000000 NULL       0.12003800      -0.03967100       0.20112900
P        2.64897503       1.22945357       4.70559330       0.00000000 NULL      -0.02566300       0.12379100       0.20112900
P        2.19955692       3.64311291       6.99491784       0.00000000 NULL      -0.47210600       0.20234100      -0.16493900
P        1.29417150       0.08331573       2.06556375       0.00000000 NULL       0.06082000      -0.51002600      -0.16493800
P        4.82973900       1.07912755       4.53024079       0.00000000 NULL       0.41128600       0.30768500      -0.16493900
P       -0.05154810       3.33347949       4.78519441       0.00000000 NULL       0.20757800       0.09830500      -0.44194700
P       -0.08661473       3.09417447       7.24987146       0.00000000 NULL      -0.18892200       0.13061400      -0.44194800
P        0.13816281       3.18345839       2.32051737       0.00000000 NULL      -0.01865300      -0.22892000      -0.44194700
12
Lattice="5.613189940947074 -6.546700810258557e-16 0.0 -2.8065949704735353 4.861165085127439 0.0 0.0 0.0 7.361451364581669" Properties=species:S:1:pos:R:3:initial_magmoms:R:1:castep_labels:S:1:forces:R:3 n_minim_iter=12 energy=-64.964385835576 stress="-0.011104236342897368 -0.0 0.0 -0.0 -0.011104286126516929 0.0 0.0 0.0 -0.0003385286130092002" free_energy=-64.964385835576 pbc="T T T"
P        1.41115072       0.11964704      -0.15624658       0.00000000 NULL       0.03399700       0.00649700       0.33296400
P        4.80399721       1.16226886       2.29757054       0.00000000 NULL      -0.02262400       0.02619400       0.33296800
P        2.20463697       3.57924920       4.75138767       0.00000000 NULL      -0.01137300      -0.03269100       0.33296700
P        3.08580826       1.68801895       7.14713161       0.00000000 NULL      -0.08541200      -0.03885300       0.16653900
P        2.60841852       1.82837888       2.23949737       0.00000000 NULL       0.07635500      -0.05454200       0.16654000
P        2.72555812       1.34476728       4.69331449       0.00000000 NULL       0.00905900       0.09339600       0.16653900
P        2.10459091       3.67099490       6.99456013       0.00000000 NULL       0.08235900       0.27655000      -0.15650600
P        1.38171965      -0.01286825       2.08692589       0.00000000 NULL      -0.28068000      -0.06695100      -0.15650200
P        4.93347434       1.20303845       4.54074301       0.00000000 NULL       0.19831900      -0.20960000      -0.15650500
P       -0.01669083       3.36983989       4.71275191       0.00000000 NULL      -0.20649600       0.28000000      -0.34300100
P       -0.10342656       3.16179047       7.16656904       0.00000000 NULL      -0.13923800      -0.31883100      -0.34300200
P        0.12011739       3.19069983       2.25893479       0.00000000 NULL       0.34573400       0.03883000      -0.34300100
12
Lattice="5.626126725371344 -8.109114813650607e-16 0.0 -2.81306336268567 4.87236866908214 0.0 0.0 0.0 7.312084063914933" Properties=species:S:1:pos:R:3:initial_magmoms:R:1:castep_labels:S:1:forces:R:3 n_minim_iter=13 energy=-65.044525431952 stress="-0.00662632299320094 4.98894970125052e-08 -0.0 4.98894970125052e-08 -0.00662632299320094 -0.0 -0.0 -0.0 -0.005278608120905124" free_energy=-65.044525431952 pbc="T T T"
P        1.39465986       0.09755113      -0.14656704       0.00000000 NULL       0.02379400       0.08353100       0.30046900
P        4.84431504       1.15903531       2.29079431       0.00000000 NULL      -0.08423800      -0.02115800       0.30046900
P        2.20021518       3.61578224       4.72815567       0.00000000 NULL       0.06044400      -0.06237300       0.30046900
P        3.06266203       1.68492342       7.11965378       0.00000000 NULL      -0.07230100       0.11166000       0.10401300
P        2.63560922       1.80988143       2.24493107       0.00000000 NULL      -0.06055200      -0.11844800       0.10401300
P        2.74091882       1.37756384       4.68229242       0.00000000 NULL       0.13285300       0.00678400       0.10401200
P        2.09755134       3.69422842       6.96794111       0.00000000 NULL      -0.01695800       0.09337600      -0.19844400
P        1.37805539      -0.03058146       2.09321840       0.00000000 NULL      -0.07238400      -0.06137100      -0.19844400
P        4.96358335       1.20872172       4.53057975       0.00000000 NULL       0.08934200      -0.03200200      -0.19844500
P       -0.01414430       3.40938009       4.63177550       0.00000000 NULL      -0.18115100       0.17795000      -0.20603800
P       -0.13247426       3.15542931       7.06913686       0.00000000 NULL      -0.06353200      -0.24585500      -0.20603800
P        0.14661854       3.17992795       2.19441415       0.00000000 NULL       0.24468400       0.06790600      -0.20603700
12
Lattice="5.61151259223034 -7.859881624849833e-16 0.0 -2.805756296115168 4.859712458527742 0.0 0.0 0.0 7.384348600131837" Properties=species:S:1:pos:R:3:initial_magmoms:R:1:castep_labels:S:1:forces:R:3 n_minim_iter=14 energy=-65.106163311457 stress="-0.0038133085527497926 4.9658921119283666e-08 0.0 4.9658921119283666e-08 -0.003813407870592031 -0.0 0.0 -0.0 0.004001267569186281" free_energy=-65.106163311457 pbc="T T T"
P        1.38176640       0.09082493      -0.12780620       0.00000000 NULL      -0.05874800       0.14074000       0.23035300
P        4.84197270       1.15123235       2.33364333       0.00000000 NULL      -0.09250600      -0.12124100       0.23034900
P        2.19352978       3.61765520       4.79509287       0.00000000 NULL       0.15125300      -0.01949300       0.23035000
P        3.04815459       1.69807327       7.21752850       0.00000000 NULL      -0.08594300       0.02383800       0.04982700
P        2.61686071       1.79074269       2.29462943       0.00000000 NULL       0.02232600      -0.08634600       0.04982600
P        2.75225357       1.37089652       4.75607896       0.00000000 NULL       0.06362000       0.06250900       0.04982600
P        2.06201164       3.69207085       7.02923448       0.00000000 NULL      -0.01639700       0.10879100      -0.13130200
P        1.38307962      -0.06028095       2.10633542       0.00000000 NULL      -0.08601600      -0.06859900      -0.13130600
P        4.97217762       1.22792258       4.56778495       0.00000000 NULL       0.10241100      -0.04019500      -0.13130300
P       -0.01073715       3.45822166       4.63739948       0.00000000 NULL      -0.25859500      -0.01988000      -0.14887300
P       -0.18378294       3.12130300       7.09884902       0.00000000 NULL       0.14651700      -0.21401300      -0.14887300
P        0.19452008       3.13990027       2.17594995       0.00000000 NULL       0.11207900       0.23388900      -0.14887300
12
Lattice="5.618329399668578 -8.373321375675743e-16 0.0 -2.809164699834287 4.865615986941962 0.0 0.0 0.0 7.380877123198903" Properties=species:S:1:pos:R:3:initial_magmoms:R:1:castep_labels:S:1:forces:R:3 n_minim_iter=15 energy=-65.13145227229 stress="-0.002616912379260591 -4.95617957853183e-08 -0.0 -4.95617957853183e-08 -0.002616862817464806 0.0 -0.0 0.0 0.003491479827688318" free_energy=-65.13145227229 pbc="T T T"
P        1.38258912       0.09379607      -0.12663141       0.00000000 NULL      -0.01847100       0.04166000       0.20381000
P        4.84580506       1.15045928       2.33366096       0.00000000 NULL      -0.02684500      -0.03683000       0.20381100
P        2.19909991       3.62136066       4.79395333       0.00000000 NULL       0.04531600      -0.00483200       0.20381100
P        3.02491560       1.71194914       7.23393638       0.00000000 NULL       0.00642300      -0.00173100       0.00781300
P        2.62328015       1.76367919       2.31335163       0.00000000 NULL      -0.00171100       0.00642900       0.00781300
P        2.77929834       1.38998767       4.77364401       0.00000000 NULL      -0.00471400      -0.00469700       0.00781400
P        2.04832772       3.70937105       7.02536820       0.00000000 NULL      -0.01128100       0.08167100      -0.13079600
P        1.38175598      -0.08078167       2.10478345       0.00000000 NULL      -0.06509100      -0.05060600      -0.13079400
P        4.99741039       1.23702663       4.56507583       0.00000000 NULL       0.07637400      -0.03106600      -0.13079500
P       -0.02062226       3.46216014       4.61486546       0.00000000 NULL      -0.07072800       0.01287100      -0.08082900
P       -0.17884280       3.11667653       7.07515784       0.00000000 NULL       0.02421600      -0.06768700      -0.08082900
P        0.19946505       3.15239532       2.15457309       0.00000000 NULL       0.04651200       0.05481800      -0.08083000
12
Lattice="5.620215332733563 -1.3257821149628707e-15 0.0 -2.810107666366779 4.867249252886076 0.0 0.0 0.0 7.390482830044744" Properties=species:S:1:pos:R:3:initial_magmoms:R:1:castep_labels:S:1:forces:R:3 n_minim_iter=16 energy=-65.13965351756 stress="0.0005776919846094834 -4.94641651348132e-08 -0.0 -4.94641651348132e-08 0.0005776919846094834 -0.0 -0.0 -0.0 0.002702078948819441" free_energy=-65.13965351756 pbc="T T T"
P        1.38904341       0.10511613      -0.10938644       0.00000000 NULL      -0.06996100       0.00442400       0.02880300
P        4.83466038       1.15038883       2.35410784       0.00000000 NULL       0.03114900      -0.06280200       0.02880100
P        2.20661919       3.61174431       4.81760211       0.00000000 NULL       0.03881200       0.05837700       0.02880200
P        3.02930650       1.72465979       7.25132351       0.00000000 NULL      -0.02562000       0.01732400       0.03756100
P        2.61196289       1.76112650       2.32433496       0.00000000 NULL      -0.00219100      -0.03084700       0.03756100
P        2.78905360       1.38146298       4.78782923       0.00000000 NULL       0.02781000       0.01352600       0.03756100
P        2.04839445       3.73191890       7.03568091       0.00000000 NULL      -0.03705300      -0.05550700      -0.08594200
P        1.36408154      -0.09199781       2.10869236       0.00000000 NULL       0.06659500      -0.00433900      -0.08594300
P        5.01784700       1.22732818       4.57218663       0.00000000 NULL      -0.02954000       0.05984200      -0.08594100
P       -0.01486393       3.46359693       4.59431908       0.00000000 NULL      -0.02597400      -0.00785700       0.01957900
P       -0.18202330       3.12257826       7.05781336       0.00000000 NULL       0.01979000      -0.01856600       0.01957900
P        0.19688721       3.14832333       2.13082481       0.00000000 NULL       0.00618300       0.02642400       0.01957800
12
Lattice="5.614781257167741 -9.699449828945827e-16 0.0 -2.8073906285838683 4.862543205399991 0.0 0.0 0.0 7.3801560523749465" Properties=species:S:1:pos:R:3:initial_magmoms:R:1:castep_labels:S:1:forces:R:3 n_minim_iter=17 energy=-65.143313330467 stress="0.0009791861608691387 -4.962930364263247e-08 -0.0 -4.962930364263247e-08 0.0009791861608691387 0.0 -0.0 0.0 0.0005884546532906931" free_energy=-65.143313330467 pbc="T T T"
P        1.37372751       0.10141121      -0.11018508       0.00000000 NULL      -0.01311400       0.00275100       0.02528100
P        4.84009282       1.13897733       2.34986693       0.00000000 NULL       0.00417500      -0.01273400       0.02528200
P        2.20835155       3.62215468       4.80991895       0.00000000 NULL       0.00893900       0.00998300       0.02528200
P        3.01770833       1.72684212       7.25263639       0.00000000 NULL      -0.02602200       0.00110700      -0.00562200
P        2.61043795       1.74999103       2.33253235       0.00000000 NULL       0.01205500      -0.02308700      -0.00562100
P        2.79402559       1.38571008       4.79258437       0.00000000 NULL       0.01396700       0.02198200      -0.00562100
P        2.03315055       3.72988069       7.02285778       0.00000000 NULL       0.00487300      -0.02704800      -0.03259100
P        1.36803455      -0.10418031       2.10275374       0.00000000 NULL       0.02098600       0.01774100      -0.03259000
P        5.02098677       1.23684284       4.56280576       0.00000000 NULL      -0.02585800       0.00930400      -0.03259100
P       -0.01604704       3.47552221       4.58039764       0.00000000 NULL       0.01009200      -0.02349700       0.01293100
P       -0.19447638       3.11088497       7.04044966       0.00000000 NULL       0.01530200       0.02048800       0.01293100
P        0.21052341       3.13867925       2.12034563       0.00000000 NULL      -0.02539400       0.00301000       0.01293100
12
Lattice="5.614949229898595 -2.3086462234281776e-16 0.0 -2.8074746149492955 4.862688674052053 0.0 0.0 0.0 7.382445485451843" Properties=species:S:1:pos:R:3:initial_magmoms:R:1:castep_labels:S:1:forces:R:3 n_minim_iter=18 energy=-65.14370764312 stress="1.8107993662678704e-05 -4.96109415415855e-08 -0.0 -4.96109415415855e-08 1.8157604604220292e-05 0.0 -0.0 0.0 0.0009661730865223774" free_energy=-65.14370764312 pbc="T T T"
P        1.36925131       0.10359808      -0.11053352       0.00000000 NULL       0.00093400      -0.00346600       0.02590800
P        4.84060500       1.13400739       2.35028164       0.00000000 NULL       0.00253200       0.00253700       0.02591300
P        2.21256752       3.62508322       4.81109680       0.00000000 NULL      -0.00346500       0.00092500       0.02591200
P        3.01010955       1.72584577       7.25281394       0.00000000 NULL       0.01330900       0.00988000      -0.00350400
P        2.61526818       1.74390847       2.33118361       0.00000000 NULL      -0.01520900       0.00658500      -0.00350300
P        2.79704610       1.39293446       4.79199878       0.00000000 NULL       0.00189900      -0.01646500      -0.00350300
P        2.03205472       3.73058775       7.02378422       0.00000000 NULL      -0.00363000      -0.01811200      -0.01558100
P        1.36813810      -0.10548285       2.10215389       0.00000000 NULL       0.01749900       0.00591400      -0.01557500
P        5.02223100       1.23758379       4.56296905       0.00000000 NULL      -0.01386900       0.01220000      -0.01557900
P       -0.01155748       3.47252165       4.58545758       0.00000000 NULL      -0.00718100      -0.00515700      -0.00683000
P       -0.19403861       3.11641880       7.04627274       0.00000000 NULL       0.00805500      -0.00363700      -0.00683000
P        0.20559607       3.13643692       2.12464241       0.00000000 NULL      -0.00087500       0.00879800      -0.00683000
12
Lattice="5.613674922460725 -7.964244086888552e-16 0.0 -2.8068374612303604 4.861585091438627 0.0 0.0 0.0 7.380748950169875" Properties=species:S:1:pos:R:3:initial_magmoms:R:1:castep_labels:S:1:forces:R:3 n_minim_iter=19 energy=-65.143883793461 stress="-0.00037422306164487174 4.964487419008647e-08 0.0 4.964487419008647e-08 -0.00037422306164487174 0.0 0.0 0.0 -0.00021104036018205756" free_energy=-65.143883793461 pbc="T T T"
P        1.37273414       0.10184849      -0.11034067       0.00000000 NULL      -0.00282700       0.00859700       0.00170800
P        4.83910447       1.13789841       2.34990898       0.00000000 NULL      -0.00603000      -0.00674300       0.00170800
P        2.20867376       3.62183821       4.81015863       0.00000000 NULL       0.00885600      -0.00185100       0.00170800
P        3.01503028       1.72415105       7.25133982       0.00000000 NULL       0.00207200      -0.00342600      -0.00609400
P        2.61300117       1.74901731       2.33084052       0.00000000 NULL       0.00192800       0.00350700      -0.00609500
P        2.79248092       1.38841675       4.79109017       0.00000000 NULL      -0.00400200      -0.00008200      -0.00609500
P        2.03426809       3.72548138       7.02067437       0.00000000 NULL      -0.00033900       0.00835900       0.00671600
P        1.37017936      -0.10101283       2.10017507       0.00000000 NULL      -0.00706700      -0.00447200       0.00671600
P        5.01606492       1.23711656       4.56042472       0.00000000 NULL       0.00740700      -0.00388600       0.00671600
P       -0.01576781       3.46952724       4.58553937       0.00000000 NULL       0.00069500       0.00931300      -0.00232900
P       -0.18997736       3.11316616       7.04578902       0.00000000 NULL      -0.00841100      -0.00405600      -0.00232900
P        0.20574516       3.14047680       2.12528972       0.00000000 NULL       0.00771800      -0.00525900      -0.00232900
12
Lattice="5.614293833540622 3.0219774081870585e-16 0.0 -2.8071469167703094 4.8621210841565015 0.0 0.0 0.0 7.380646295441838" Properties=species:S:1:pos:R:3:initial_magmoms:R:1:castep_labels:S:1:forces:R:3 n_minim_iter=20 energy=-65.143981827252 stress="7.142421968612685e-05 -0.0 0.0 -0.0 7.137458506508019e-05 0.0 0.0 0.0 -1.2756097608988601e-05" free_energy=-65.143981827252 pbc="T T T"
P        1.37101964       0.10285912      -0.10926064       0.00000000 NULL      -0.00043300       0.00004600       0.00288400
P        4.83970540       1.13590829       2.35095479       0.00000000 NULL       0.00017800      -0.00039700       0.00288800
P        2.21071569       3.62335369       4.81117022       0.00000000 NULL       0.00025600       0.00035100       0.00288700
P        3.01452628       1.72463285       7.25024388       0.00000000 NULL      -0.00304200      -0.00077400      -0.00055800
P        2.61345484       1.74833992       2.32981301       0.00000000 NULL       0.00219300      -0.00224600      -0.00055600
P        2.79345962       1.38914833       4.79002845       0.00000000 NULL       0.00085100       0.00302100      -0.00055700
P        2.03316841       3.72694269       7.02191029       0.00000000 NULL       0.00083800      -0.00222400      -0.00164400
P        1.37008258      -0.10269584       2.10147942       0.00000000 NULL       0.00150600       0.00183600      -0.00164000
P        5.01818975       1.23787426       4.56169486       0.00000000 NULL      -0.00234600       0.00038700      -0.00164400
P       -0.01395724       3.47204269       4.58405865       0.00000000 NULL       0.00032300      -0.00154600      -0.00068700
P       -0.19275163       3.11401243       7.04427409       0.00000000 NULL       0.00117800       0.00105200      -0.00068700
P        0.20670886       3.13818707       2.12384322       0.00000000 NULL      -0.00150100       0.00049300      -0.00068600
