7
Lattice="3.5385999999999984 5.018000749094237e-16 -6.702935870113262e-16 1.512861067641874 6.540379210329745 -1.0179973304256394e-15 1.6586640676962239 1.7603185600831017 6.881732162011279" Properties=species:S:1:pos:R:3:initial_magmoms:R:1:castep_labels:S:1 n_minim_iter=1 pbc="T T T"
P        4.23749777       6.50027489       1.56147810       0.00000000 NULL
P        2.82053744       2.86211826       6.33304822       0.00000000 NULL
P        2.10046083       3.15153234       1.90094776       0.00000000 NULL
P        4.00531928       1.95255420       1.60374020       0.00000000 NULL
P        2.89268027       3.67403099       4.47670303       0.00000000 NULL
P        4.47373969       6.52358580       6.75275818       0.00000000 NULL
P        4.74888706       4.03014594       5.75472534       0.00000000 NULL
7
Lattice="3.539368285042223 -0.00023051692489717523 0.0006098258675091081 1.5127634698421766 6.540157605357027 -0.0011881152102572322 1.6600954817745677 1.7586529382215863 6.885417747068871" Properties=species:S:1:pos:R:3:initial_magmoms:R:1:castep_labels:S:1 n_minim_iter=2 pbc="T T T"
P        4.23822926       6.49946051       1.56158483       0.00000000 NULL
P        2.82216163       2.86021115       6.33671110       0.00000000 NULL
P        2.10123917       3.15119291       1.90160738       0.00000000 NULL
P        4.00619767       1.95170484       1.60488168       0.00000000 NULL
P        2.89388881       3.67287668       4.47853352       0.00000000 NULL
P        4.47543855       6.52158621       6.75591428       0.00000000 NULL
P        4.75047795       4.02873596       5.75779852       0.00000000 NULL
7
Lattice="3.5798627756656236 -0.012736521766170033 0.034238939473314085 1.5069613233011747 6.527001291048547 -0.06531341647961052 1.7382559850196737 1.6680890385263099 7.08485095177408" Properties=species:S:1:pos:R:3:initial_magmoms:R:1:castep_labels:S:1 n_minim_iter=3 pbc="T T T"
P        4.27671031       6.45425159       1.56789868       0.00000000 NULL
P        2.91049656       2.75635818       6.53564438       0.00000000 NULL
P        2.14301724       3.13212773       1.93737682       0.00000000 NULL
P        4.05277323       1.90543620       1.66731710       0.00000000 NULL
P        2.95898120       3.60977724       4.57756038       0.00000000 NULL
P        4.56722398       6.41201232       6.92736145       0.00000000 NULL
P        4.83604753       3.95152172       5.92438559       0.00000000 NULL
7
Lattice="3.550962818440751 -0.015801049293519123 0.06622453756124773 1.4889415436506324 6.426746919502807 -0.08651313115374033 1.785389442825511 1.6033274230372851 7.121827304675849" Properties=species:S:1:pos:R:3:initial_magmoms:R:1:castep_labels:S:1 n_minim_iter=4 pbc="T T T"
P        4.24834488       6.34096104       1.57499389       0.00000000 NULL
P        2.94544330       2.66864822       6.58535185       0.00000000 NULL
P        2.15055306       3.08661769       1.94416962       0.00000000 NULL
P        4.02612505       1.85436473       1.69989102       0.00000000 NULL
P        2.97402745       3.52998719       4.59513433       0.00000000 NULL
P        4.58610469       6.26684413       6.97163379       0.00000000 NULL
P        4.83990457       3.86673149       5.97125007       0.00000000 NULL
7
Lattice="3.486021244268159 0.0002578887549953401 0.17294129176406264 1.49085867622154 6.151767329037712 -0.1260645516919869 1.970476401155162 1.4453755825146055 7.203689644750986" Properties=species:S:1:pos:R:3:initial_magmoms:R:1:castep_labels:S:1 n_minim_iter=5 pbc="T T T"
P        4.23936796       6.04916974       1.61766704       0.00000000 NULL
P        3.10647357       2.45404816       6.71362627       0.00000000 NULL
P        2.21517708       2.98222468       1.96832924       0.00000000 NULL
P        3.99082956       1.73769558       1.80577310       0.00000000 NULL
P        3.07813610       3.33099129       4.64256471       0.00000000 NULL
P        4.73781678       5.89500977       7.10401886       0.00000000 NULL
P        4.92497559       3.67357292       6.10499939       0.00000000 NULL
7
Lattice="3.5569817787946314 0.04856732041791728 0.24508198561185113 1.6104866173663877 6.169554755721794 -0.09049356976683602 2.1680665811893567 1.472223809318761 7.2834514403773785" Properties=species:S:1:pos:R:3:initial_magmoms:R:1:castep_labels:S:1 n_minim_iter=6 pbc="T T T"
P        4.43661065       6.08851707       1.70773939       0.00000000 NULL
P        3.33231729       2.48449933       6.82732928       0.00000000 NULL
P        2.35878146       3.06076974       2.01318878       0.00000000 NULL
P        4.12835093       1.76751624       1.89918851       0.00000000 NULL
P        3.29163245       3.37171908       4.71087351       0.00000000 NULL
P        5.05059872       5.93485143       7.27608141       0.00000000 NULL
P        5.17179840       3.76789852       6.24294046       0.00000000 NULL
7
Lattice="3.4860640438283665 0.05845322204944367 0.27712629802664734 1.5984391594085487 6.068064544395102 -0.07519224741614149 2.202061384989912 1.450089373889057 7.228427768584137" Properties=species:S:1:pos:R:3:initial_magmoms:R:1:castep_labels:S:1 n_minim_iter=7 pbc="T T T"
P        4.38148406       5.99009775       1.72570252       0.00000000 NULL
P        3.34024560       2.44718231       6.78957880       0.00000000 NULL
P        2.34631756       3.03309155       2.00559477       0.00000000 NULL
P        4.07148850       1.73992921       1.92167091       0.00000000 NULL
P        3.28918363       3.32150722       4.68746503       0.00000000 NULL
P        5.03770644       5.83160608       7.26467078       0.00000000 NULL
P        5.13423466       3.72612479       6.22793217       0.00000000 NULL
7
Lattice="3.5054039644298824 0.06295546439221625 0.2866633149403317 1.6150290495198574 6.105849275002881 -0.0664162247820431 2.231913588730474 1.4667951663317784 7.296370623924623" Properties=species:S:1:pos:R:3:initial_magmoms:R:1:castep_labels:S:1 n_minim_iter=8 pbc="T T T"
P        4.41528826       6.02693936       1.75278235       0.00000000 NULL
P        3.37606386       2.46931126       6.85717241       0.00000000 NULL
P        2.36871219       3.06754113       2.02644634       0.00000000 NULL
P        4.10355516       1.75114610       1.95103670       0.00000000 NULL
P        3.32711543       3.34841955       4.73184441       0.00000000 NULL
P        5.08627077       5.87131166       7.35264591       0.00000000 NULL
P        5.17482125       3.76474994       6.29600548       0.00000000 NULL
7
Lattice="3.4939325107452595 0.0693719429620317 0.29858552630437274 1.6219841977063738 6.101178518782157 -0.06034739808403245 2.2529143301740153 1.4688297687365381 7.310691424091264" Properties=species:S:1:pos:R:3:initial_magmoms:R:1:castep_labels:S:1 n_minim_iter=9 pbc="T T T"
P        4.41706062       6.02341601       1.76676439       0.00000000 NULL
P        3.39274651       2.47164277       6.87474146       0.00000000 NULL
P        2.37570821       3.07842735       2.03219066       0.00000000 NULL
P        4.10222485       1.75199344       1.96885283       0.00000000 NULL
P        3.34335180       3.35009352       4.74371951       0.00000000 NULL
P        5.10426661       5.86666554       7.38622300       0.00000000 NULL
P        5.18217808       3.77470848       6.31981294       0.00000000 NULL
7
Lattice="3.4583345207856637 0.09585411173335215 0.34438437646128434 1.6557118337715426 6.105822372140303 -0.040039776188941244 2.3384700206954543 1.4802106410555371 7.398731265303158" Properties=species:S:1:pos:R:3:initial_magmoms:R:1:castep_labels:S:1 n_minim_iter=10 pbc="T T T"
P        4.43637950       6.03014782       1.82288512       0.00000000 NULL
P        3.46420414       2.48877529       6.97066987       0.00000000 NULL
P        2.40954907       3.13712309       2.05978652       0.00000000 NULL
P        4.11009271       1.76058688       2.04661928       0.00000000 NULL
P        3.41751466       3.36822528       4.80682739       0.00000000 NULL
P        5.18597971       5.86614083       7.55183976       0.00000000 NULL
P        5.22160953       3.82898916       6.43781342       0.00000000 NULL
7
Lattice="3.340740055959781 0.14548108982650293 0.39686864846603553 1.6971618897786318 6.08904589375574 -0.13969720099052005 2.4101063401173732 1.364778231463644 7.604242891728949" Properties=species:S:1:pos:R:3:initial_magmoms:R:1:castep_labels:S:1 n_minim_iter=11 pbc="T T T"
P        4.39448091       5.97752831       1.77087912       0.00000000 NULL
P        3.48886881       2.39874503       7.13502750       0.00000000 NULL
P        2.42269705       3.21898421       2.04161456       0.00000000 NULL
P        4.06650838       1.72911678       2.15375272       0.00000000 NULL
P        3.48969268       3.30509597       4.87824459       0.00000000 NULL
P        5.20075345       5.69259642       7.82627808       0.00000000 NULL
P        5.16565644       3.81589834       6.61161141       0.00000000 NULL
