10
Lattice="5.460169999999935 -8.46861231498704e-07 3.485244498521197e-31 -2.730084013680966 6.359329697390521 3.310996969265135e-16 -4.324586331011229e-07 -2.788293485251301 6.59750802883217" Properties=species:S:1:pos:R:3:initial_magmoms:R:1:castep_labels:S:1 n_minim_iter=1 pbc="T T T"
P        1.97519671      -0.84717980       4.44356416       0.00000000 NULL
P       -0.75488747       4.41821539       2.15394387       0.00000000 NULL
P        0.41229337       0.17011667       5.31024383       0.00000000 NULL
P        3.14237887       3.40091856       1.28726420       0.00000000 NULL
P        0.59088622       3.53297740       0.94197702       0.00000000 NULL
P        3.32097068       0.03805778       5.65553101       0.00000000 NULL
P        4.39690887      -0.30217752       3.98013343       0.00000000 NULL
P        1.66682452       3.87321236       2.61737460       0.00000000 NULL
P       -1.24802257       1.96506363       3.43383469       0.00000000 NULL
P        1.48206238       1.60597211       3.16367334       0.00000000 NULL
10
Lattice="5.469100534202106 -8.482463391368076e-07 4.3622315896072056e-20 -2.734549280403925 6.361767682941786 0.005991069767816637 -4.316604208269499e-07 -2.7831469812434344 6.608618824372715" Properties=species:S:1:pos:R:3:initial_magmoms:R:1:castep_labels:S:1 n_minim_iter=2 pbc="T T T"
P        1.97834583      -0.84350937       4.45189852       0.00000000 NULL
P       -0.75620362       4.42212945       2.16271138       0.00000000 NULL
P        0.41302695       0.17534183       5.32158452       0.00000000 NULL
P        3.14757772       3.40327789       1.29302538       0.00000000 NULL
P        0.59185408       3.53508087       0.94697439       0.00000000 NULL
P        3.32640380       0.04353880       5.66763550       0.00000000 NULL
P        4.40412754      -0.29851296       3.98777290       0.00000000 NULL
P        1.66957792       3.87713229       2.62683700       0.00000000 NULL
P       -1.25007018       1.96897058       3.44283430       0.00000000 NULL
P        1.48448003       1.60964966       3.17177560       0.00000000 NULL
10
Lattice="5.720833428391307 -8.872895975910307e-07 2.4464584344988186e-16 -2.860415716861032 6.4303533444203715 0.18063637658238152 -4.0822286852136907e-07 -2.6320324731157325 6.929224594183081" Properties=species:S:1:pos:R:3:initial_magmoms:R:1:castep_labels:S:1 n_minim_iter=3 pbc="T T T"
P        2.06700083      -0.73600016       4.69254407       0.00000000 NULL
P       -0.79341507       4.53432038       2.41731690       0.00000000 NULL
P        0.43377652       0.32752568       5.64960825       0.00000000 NULL
P        3.29419372       3.47079417       1.46025272       0.00000000 NULL
P        0.61912323       3.59494593       1.09205751       0.00000000 NULL
P        3.47953942       0.20337386       6.01780346       0.00000000 NULL
P        4.60767159      -0.19175782       4.20841725       0.00000000 NULL
P        1.74725553       3.99007725       2.90144372       0.00000000 NULL
P       -1.30779971       2.08212304       3.70338253       0.00000000 NULL
P        1.55261695       1.71619735       3.40647844       0.00000000 NULL
10
Lattice="5.749216202729785 -8.916917079910057e-07 2.225878372231755e-16 -2.874607110455036 6.388929426027804 0.30752631716097084 -3.849884154563027e-07 -2.482227453021712 7.054073290201845" Properties=species:S:1:pos:R:3:initial_magmoms:R:1:castep_labels:S:1 n_minim_iter=4 pbc="T T T"
P        2.07508847      -0.64137636       4.79850786       0.00000000 NULL
P       -0.79951882       4.54807769       2.56309175       0.00000000 NULL
P        0.43709089       0.43370401       5.79646384       0.00000000 NULL
P        3.31169946       3.47299693       1.56513577       0.00000000 NULL
P        0.62187281       3.58963462       1.18787918       0.00000000 NULL
P        3.49648040       0.31706626       6.17372043       0.00000000 NULL
P        4.63206598      -0.10644854       4.30833107       0.00000000 NULL
P        1.75745851       4.01314907       3.05326854       0.00000000 NULL
P       -1.31449521       2.13577470       3.83546266       0.00000000 NULL
P        1.56011284       1.77092678       3.52613695       0.00000000 NULL
10
Lattice="5.700056597766877 -8.840671535452364e-07 2.0145038024618676e-16 -2.8500273198263377 6.312508327162399 0.4636704994702229 -3.546668113773378e-07 -2.2867277573220544 7.130918546283871" Properties=species:S:1:pos:R:3:initial_magmoms:R:1:castep_labels:S:1 n_minim_iter=5 pbc="T T T"
P        2.05479909      -0.51944321       4.87881554       0.00000000 NULL
P       -0.79522842       4.54522313       2.71577350       0.00000000 NULL
P        0.43440221       0.56258472       5.91294094       0.00000000 NULL
P        3.28443096       3.46319483       1.68164811       0.00000000 NULL
P        0.61620194       3.57039463       1.29889189       0.00000000 NULL
P        3.46622976       0.45538486       6.29569716       0.00000000 NULL
P        4.59463460       0.00048041       4.38877792       0.00000000 NULL
P        1.74460693       4.02529873       3.20581113       0.00000000 NULL
P       -1.30358049       2.19461099       3.95734294       0.00000000 NULL
P        1.54644775       1.83116909       3.63724611       0.00000000 NULL
10
Lattice="5.561914570996147 -8.62641606902585e-07 2.481941928459016e-16 -2.780956314063114 6.2633642718800475 0.6890710404539849 -3.150563237944534e-07 -2.0313376323278822 7.154207273366099" Properties=species:S:1:pos:R:3:initial_magmoms:R:1:castep_labels:S:1 n_minim_iter=6 pbc="T T T"
P        2.00203972      -0.35073717       4.93634276       0.00000000 NULL
P       -0.77891680       4.58276318       2.90693556       0.00000000 NULL
P        0.42462859       0.74976589       6.00842666       0.00000000 NULL
P        3.20558630       3.48225974       1.83485165       0.00000000 NULL
P        0.60075621       3.57856526       1.45185172       0.00000000 NULL
P        3.38171304       0.65346033       6.39142659       0.00000000 NULL
P        4.48682304       0.15011668       4.45685493       0.00000000 NULL
P        1.70586636       4.08190856       3.38642338       0.00000000 NULL
P       -1.27280951       2.30080308       4.08718225       0.00000000 NULL
P        1.50814772       1.93122309       3.75609606       0.00000000 NULL
10
Lattice="5.452130316867318 -8.456142929946517e-07 1.9127167454476592e-16 -2.7260641678136945 6.387060309558448 0.9051127984973589 -2.8870551424041254e-07 -1.8614397850926976 7.097052693863674" Properties=species:S:1:pos:R:3:initial_magmoms:R:1:castep_labels:S:1 n_minim_iter=7 pbc="T T T"
P        1.96139632      -0.21365451       4.93591789       0.00000000 NULL
P       -0.76466807       4.73927442       3.06624760       0.00000000 NULL
P        0.41623404       0.93548780       6.03671690       0.00000000 NULL
P        3.14229961       3.59013175       1.96544859       0.00000000 NULL
P        0.58838527       3.68318170       1.59115652       0.00000000 NULL
P        3.31444998       0.84243779       6.41100897       0.00000000 NULL
P        4.40171287       0.27898573       4.47537902       0.00000000 NULL
P        1.67564833       4.24663342       3.52678647       0.00000000 NULL
P       -1.24948742       2.45973969       4.17172597       0.00000000 NULL
P        1.47657767       2.06588037       3.83043952       0.00000000 NULL
10
Lattice="5.38941400892509 -8.358871214959282e-07 1.0676115393044514e-16 -2.6947060065860815 6.433846858648644 1.1060754305383367 -2.595509016792086e-07 -1.6734643110605896 6.888378737809732" Properties=species:S:1:pos:R:3:initial_magmoms:R:1:castep_labels:S:1 n_minim_iter=8 pbc="T T T"
P        1.93895767      -0.07713561       4.83023980       0.00000000 NULL
P       -0.75574857       4.83751755       3.16421437       0.00000000 NULL
P        0.41258784       1.10775676       5.93852409       0.00000000 NULL
P        3.10729524       3.65262482       2.05593008       0.00000000 NULL
P        0.58091560       3.74484810       1.70192222       0.00000000 NULL
P        3.27562218       1.01553343       6.29253195       0.00000000 NULL
P        4.35339936       0.39861127       4.39564239       0.00000000 NULL
P        1.65869297       4.36176992       3.59881178       0.00000000 NULL
P       -1.23799789       2.58582604       4.17083153       0.00000000 NULL
P        1.45670905       2.17455605       3.82362263       0.00000000 NULL
10
Lattice="5.4526338100259855 -8.456923837423342e-07 9.913650304286747e-17 -2.726315898803104 6.487576937607479 1.1705229676658506 -2.5283469731338315e-07 -1.6301613279438223 6.860285801611463" Properties=species:S:1:pos:R:3:initial_magmoms:R:1:castep_labels:S:1 n_minim_iter=9 pbc="T T T"
P        1.96165925      -0.03973579       4.82159884       0.00000000 NULL
P       -0.76465689       4.89715079       3.20920993       0.00000000 NULL
P        0.41840409       1.16449545       5.93976554       0.00000000 NULL
P        3.14472139       3.69291918       2.09104323       0.00000000 NULL
P        0.58751921       3.78522116       1.74082548       0.00000000 NULL
P        3.31383569       1.07219341       6.28998329       0.00000000 NULL
P        4.40506562       0.43305537       4.39083344       0.00000000 NULL
P        1.67874934       4.42435886       3.63997533       0.00000000 NULL
P       -1.25384194       2.63862764       4.19187852       0.00000000 NULL
P        1.47247490       2.21878751       3.83893025       0.00000000 NULL
10
Lattice="5.47018783447746 -8.484149771394133e-07 8.456295593434486e-17 -2.7350929102841697 6.49237823493161 1.2071821883818012 -2.47262481726884e-07 -1.594234255935486 6.7967681145933705" Properties=species:S:1:pos:R:3:initial_magmoms:R:1:castep_labels:S:1 n_minim_iter=10 pbc="T T T"
P        1.96778969      -0.01395835       4.78570704       0.00000000 NULL
P       -0.76730346       4.91210171       3.21824327       0.00000000 NULL
P        0.42064069       1.19548039       5.90088533       0.00000000 NULL
P        3.15573500       3.70266260       2.10306497       0.00000000 NULL
P        0.58924057       3.79482501       1.75797396       0.00000000 NULL
P        3.32433407       1.10331793       6.24597635       0.00000000 NULL
P        4.41991015       0.45417557       4.36018945       0.00000000 NULL
P        1.68481685       4.44396703       3.64376086       0.00000000 NULL
P       -1.25907618       2.66081519       4.17936213       0.00000000 NULL
P        1.47601767       2.23732832       3.82458818       0.00000000 NULL
10
Lattice="5.487933848043319 -8.511673476468025e-07 8.134982907934064e-17 -2.743965915971856 6.4994398609671675 1.2311004854218068 -2.438940797941213e-07 -1.5725163563308948 6.761635409861641" Properties=species:S:1:pos:R:3:initial_magmoms:R:1:castep_labels:S:1 n_minim_iter=11 pbc="T T T"
P        1.97398603       0.00232065       4.76654851       0.00000000 NULL
P       -0.76998013       4.92460224       3.22618739       0.00000000 NULL
P        0.42266198       1.21572646       5.88061711       0.00000000 NULL
P        3.16662929       3.71119606       2.11211878       0.00000000 NULL
P        0.59102121       3.80326934       1.76995801       0.00000000 NULL
P        3.33498772       1.12365312       6.22277789       0.00000000 NULL
P        4.43475165       0.46766389       4.34385520       0.00000000 NULL
P        1.69078534       4.45925824       3.64888070       0.00000000 NULL
P       -1.26400181       2.67659419       4.17460340       0.00000000 NULL
P        1.47996504       2.25032885       3.81813249       0.00000000 NULL
10
Lattice="5.567709436322296 -8.635403787049744e-07 8.369880801240378e-17 -2.783853705864385 6.526822299268669 1.3276003407232464 -2.3022869576651836e-07 -1.4844082730853614 6.616907490723991" Properties=species:S:1:pos:R:3:initial_magmoms:R:1:castep_labels:S:1 n_minim_iter=12 pbc="T T T"
P        2.00169588       0.06857142       4.68765482       0.00000000 NULL
P       -0.78215808       4.97384198       3.25685301       0.00000000 NULL
P        0.43178149       1.29690905       5.79603328       0.00000000 NULL
P        3.21563658       3.74550398       2.14847455       0.00000000 NULL
P        0.59899653       3.83722020       1.81830308       0.00000000 NULL
P        3.38285084       1.20519277       6.12620476       0.00000000 NULL
P        4.50157451       0.52205599       4.27612391       0.00000000 NULL
P        1.71772041       4.52035663       3.66838392       0.00000000 NULL
P       -1.28610720       2.74019481       4.15420782       0.00000000 NULL
P        1.49774745       2.30221874       3.79030001       0.00000000 NULL
10
Lattice="5.615701809396352 -8.709838979216964e-07 7.937156493653117e-17 -2.807849890633229 6.538222735848505 1.3589117163478 -2.2596575187315525e-07 -1.4569227802165972 6.564067525069118" Properties=species:S:1:pos:R:3:initial_magmoms:R:1:castep_labels:S:1 n_minim_iter=13 pbc="T T T"
P        2.01824006       0.09050457       4.65899881       0.00000000 NULL
P       -0.78961008       4.99079475       3.26398043       0.00000000 NULL
P        0.43711879       1.32256688       5.76272073       0.00000000 NULL
P        3.24497008       3.75873206       2.16025851       0.00000000 NULL
P        0.60368570       3.85061875       1.83448830       0.00000000 NULL
P        3.41153619       1.23068014       6.08849094       0.00000000 NULL
P        4.54182077       0.53937669       4.25065450       0.00000000 NULL
P        1.73397049       4.54192185       3.67232474       0.00000000 NULL
P       -1.29906830       2.76218181       4.14525772       0.00000000 NULL
P        1.50878254       2.31911767       3.77772152       0.00000000 NULL
10
Lattice="5.729462178783602 -8.886278989732932e-07 2.3250279210655296e-17 -2.864730073779756 6.548197715381953 1.4203597188910546 -2.1675667958381792e-07 -1.3975469360012887 6.438846608780264" Properties=species:S:1:pos:R:3:initial_magmoms:R:1:castep_labels:S:1 n_minim_iter=14 pbc="T T T"
P        2.05709988       0.13655766       4.58967648       0.00000000 NULL
P       -0.80763045       5.01409248       3.26952984       0.00000000 NULL
P        0.45006963       1.37134295       5.67825530       0.00000000 NULL
P        3.31480110       3.77930679       2.18095103       0.00000000 NULL
P        0.61453847       3.87160811       1.86517607       0.00000000 NULL
P        3.47926916       1.27904158       5.99403026       0.00000000 NULL
P        4.63769965       0.57417990       4.18818144       0.00000000 NULL
P        1.77296918       4.57646944       3.67102489       0.00000000 NULL
P       -1.32995164       2.80218115       4.11723760       0.00000000 NULL
P        1.53477938       2.34846915       3.74196873       0.00000000 NULL
10
Lattice="5.870151037974886 -9.104484541407983e-07 1.1839473299272548e-17 -2.9350745044136772 6.541503383419483 1.4692376093226014 -2.0843664830578675e-07 -1.343903217854545 6.321868101871808" Properties=species:S:1:pos:R:3:initial_magmoms:R:1:castep_labels:S:1 n_minim_iter=15 pbc="T T T"
P        2.10472308       0.17717140       4.52529156       0.00000000 NULL
P       -0.83035169       5.02042810       3.26581415       0.00000000 NULL
P        0.46591800       1.40744121       5.59417227       0.00000000 NULL
P        3.40099389       3.79015790       2.19693344       0.00000000 NULL
P        0.62749048       3.88272083       1.88993381       0.00000000 NULL
P        3.56256560       1.31487823       5.90117191       0.00000000 NULL
P        4.75670634       0.60312680       4.12874545       0.00000000 NULL
P        1.82163144       4.59447189       3.66236026       0.00000000 NULL
P       -1.36750447       2.83077276       4.08716313       0.00000000 NULL
P        1.56757097       2.36682691       3.70394258       0.00000000 NULL
10
Lattice="6.024207081951226 -9.343422324565967e-07 -7.308542530067841e-20 -3.0121025295354604 6.521299302713782 1.5054205287154934 -2.012406111300789e-07 -1.2975064944881385 6.201904042386173" Properties=species:S:1:pos:R:3:initial_magmoms:R:1:castep_labels:S:1 n_minim_iter=16 pbc="T T T"
P        2.15622106       0.21187455       4.45810430       0.00000000 NULL
P       -0.85588173       5.01191758       3.24922027       0.00000000 NULL
P        0.48351506       1.43100912       5.50150570       0.00000000 NULL
P        3.49561897       3.79278260       2.20581887       0.00000000 NULL
P        0.64123512       3.88546399       1.90689301       0.00000000 NULL
P        3.65333827       1.33832768       5.80043156       0.00000000 NULL
P        4.88783881       0.62606022       4.06566926       0.00000000 NULL
P        1.87573589       4.59773107       3.64165531       0.00000000 NULL
P       -1.40859890       2.84894942       4.04897824       0.00000000 NULL
P        1.60350456       2.37484288       3.65834634       0.00000000 NULL
10
Lattice="6.127342990268858 -9.503384014262839e-07 -3.6761262736818676e-16 -3.063670486370308 6.504045493127549 1.5295039316285512 -1.9619210014153611e-07 -1.2649560253539098 6.123298177034278" Properties=species:S:1:pos:R:3:initial_magmoms:R:1:castep_labels:S:1 n_minim_iter=17 pbc="T T T"
P        2.19020613       0.23611429       4.41498351       0.00000000 NULL
P       -0.87346462       5.00297450       3.23781860       0.00000000 NULL
P        0.49575212       1.44561384       5.43996375       0.00000000 NULL
P        3.55942398       3.79347452       2.21283836       0.00000000 NULL
P        0.64999711       3.88596129       1.91872520       0.00000000 NULL
P        3.71366821       1.35312701       5.73407691       0.00000000 NULL
P        4.97660808       0.64199515       4.02469395       0.00000000 NULL
P        1.91293719       4.59709277       3.62810816       0.00000000 NULL
P       -1.43661581       2.86046179       4.02451906       0.00000000 NULL
P        1.62705561       2.37862717       3.62828305       0.00000000 NULL
10
Lattice="6.71280838543008 -1.0411428904539504e-06 -3.988309567389419e-16 -3.356403197840235 6.414493645580149 1.6731856367079452 -1.6698285051905305e-07 -1.076628277101402 5.678069315275606" Properties=species:S:1:pos:R:3:initial_magmoms:R:1:castep_labels:S:1 n_minim_iter=18 pbc="T T T"
P        2.37955542       0.38167382       4.17555848       0.00000000 NULL
P       -0.97684806       4.95619080       3.17569647       0.00000000 NULL
P        0.57013870       1.52862448       5.09053670       0.00000000 NULL
P        3.92654325       3.80923967       2.26071825       0.00000000 NULL
P        0.69615439       3.90096351       1.99307061       0.00000000 NULL
P        4.05255820       1.43690059       5.35818434       0.00000000 NULL
P        5.48962859       0.73770442       3.79476770       0.00000000 NULL
P        2.13322500       4.60015923       3.55648725       0.00000000 NULL
P       -1.60253524       2.93621878       3.89239559       0.00000000 NULL
P        1.75386887       2.40164603       3.45885937       0.00000000 NULL
10
Lattice="6.2470294685750165 -9.689015301681947e-07 -3.6892212346341393e-16 -3.1235137271633597 6.4934717165325155 1.6393536520875411 -1.7779746304529448e-07 -1.146355902844794 5.68883362651508" Properties=species:S:1:pos:R:3:initial_magmoms:R:1:castep_labels:S:1 n_minim_iter=19 pbc="T T T"
P        2.21447061       0.35670614       4.19054597       0.00000000 NULL
P       -0.90904341       4.99040898       3.13764131       0.00000000 NULL
P        0.53233951       1.48687535       5.07336346       0.00000000 NULL
P        3.65585461       3.86023932       2.25482381       0.00000000 NULL
P        0.64454337       3.95956234       1.98860773       0.00000000 NULL
P        3.76805770       1.38755230       5.33957955       0.00000000 NULL
P        5.12765428       0.71829141       3.79931380       0.00000000 NULL
P        2.00414015       4.62882281       3.52887348       0.00000000 NULL
P       -1.50875098       2.94965913       3.89086478       0.00000000 NULL
P        1.61476367       2.39745617       3.43732249       0.00000000 NULL
10
Lattice="6.552673063759077 -1.01630622850281e-06 -3.508375276108079e-16 -3.2763355058471846 6.615383112742601 1.701131642098539 -1.7614739545309452e-07 -1.1357170293965624 5.839154433371689" Properties=species:S:1:pos:R:3:initial_magmoms:R:1:castep_labels:S:1 n_minim_iter=20 pbc="T T T"
P        2.32173397       0.38105771       4.30145078       0.00000000 NULL
P       -0.95460183       5.09860765       3.23883530       0.00000000 NULL
P        0.55799622       1.54216048       5.21835404       0.00000000 NULL
P        3.83433313       3.93750441       2.32193204       0.00000000 NULL
P        0.67500678       4.03783835       2.04951550       0.00000000 NULL
P        3.95134290       1.44182650       5.49077057       0.00000000 NULL
P        5.38152180       0.74753358       3.89918012       0.00000000 NULL
P        2.10518588       4.73213083       3.64110595       0.00000000 NULL
P       -1.58301659       3.02305820       4.00635265       0.00000000 NULL
P        1.69331986       2.45660735       3.53393343       0.00000000 NULL
10
Lattice="6.5182854659169625 -1.0109727821967995e-06 -3.459747001794008e-16 -3.259141714198288 6.568495576160771 1.6914515096691192 -1.745164646270416e-07 -1.1252015408834009 5.81953835314713" Properties=species:S:1:pos:R:3:initial_magmoms:R:1:castep_labels:S:1 n_minim_iter=21 pbc="T T T"
P        2.30895275       0.38141723       4.28783101       0.00000000 NULL
P       -0.95018926       5.06187608       3.22315885       0.00000000 NULL
P        0.55584418       1.53198700       5.19803947       0.00000000 NULL
P        3.81498728       3.91130584       2.31295040       0.00000000 NULL
P        0.67134289       4.01192332       2.04226650       0.00000000 NULL
P        3.93048522       1.43136949       5.46872337       0.00000000 NULL
P        5.35459425       0.74627903       3.88714057       0.00000000 NULL
P        2.09545213       4.69701334       3.62384929       0.00000000 NULL
P       -1.57608077       3.00288786       3.99142382       0.00000000 NULL
P        1.68306187       2.44040565       3.51956604       0.00000000 NULL
