32
Lattice="5.907977967077332 0.0 0.0 0.0 9.96964142639558 0.0 0.0 0.0 9.729010630974518" Properties=species:S:1:pos:R:3:initial_magmoms:R:1:castep_labels:S:1:forces:R:3 n_minim_iter=1 energy=-173.710720291768 stress="-8.638097767096108e-06 0.0 -0.0 0.0 4.066013696431097e-05 0.0 -0.0 0.0 2.0399871292394647e-05" free_energy=-173.710720291768 pbc="T T T"
P        0.25064939       4.54560387       3.81857553       0.00000000 NULL      -0.00179200       0.00129600       0.00188900
P        5.65732858       5.42403755       8.68308085       0.00000000 NULL       0.00179200      -0.00129500       0.00189200
P        2.70333960       9.53042459       3.81857553       0.00000000 NULL       0.00179200       0.00129500       0.00188900
P        3.20463837       0.43921684       8.68308085       0.00000000 NULL      -0.00179200      -0.00129500       0.00189200
P        0.41181360       2.36347601       9.15976398       0.00000000 NULL       0.00281600      -0.00864600      -0.00196100
P        5.49616437       7.60616542       4.29525867       0.00000000 NULL      -0.00281600       0.00864500      -0.00196200
P        2.54217538       7.34829672       9.15976398       0.00000000 NULL      -0.00281600      -0.00864600      -0.00196000
P        3.36580258       2.62134470       4.29525867       0.00000000 NULL       0.00281600       0.00864600      -0.00196200
P        2.35910612       2.37031183       7.94288601       0.00000000 NULL      -0.00441700       0.00002500      -0.00162500
P        3.54887185       7.59932960       3.07838069       0.00000000 NULL       0.00441700      -0.00002500      -0.00162600
P        0.59488287       7.35513254       7.94288601       0.00000000 NULL       0.00441700       0.00002500      -0.00162500
P        5.31309510       2.61450889       3.07838069       0.00000000 NULL      -0.00441700      -0.00002500      -0.00162600
P        5.46779619       0.43428168       8.40748412       0.00000000 NULL       0.00015300      -0.00004400       0.00135500
P        0.44018178       9.53535975       3.54297880       0.00000000 NULL      -0.00015300       0.00004400       0.00135500
P        3.39417076       5.41910239       8.40748412       0.00000000 NULL      -0.00015300      -0.00004400       0.00135500
P        2.51380721       4.55053904       3.54297880       0.00000000 NULL       0.00015300       0.00004400       0.00135500
P        2.54838624       9.04146697       5.96919694       0.00000000 NULL      -0.00265900      -0.00731000      -0.00006600
P        3.35959173       0.92817446       1.10469163       0.00000000 NULL       0.00265900       0.00731000      -0.00006900
P        0.40560274       4.05664626       5.96919694       0.00000000 NULL       0.00265900      -0.00731000      -0.00006600
P        5.50237522       5.91299517       1.10469163       0.00000000 NULL      -0.00265800       0.00731000      -0.00006900
P       -0.56608118       0.92595994       6.25562373       0.00000000 NULL      -0.00017200      -0.00001100       0.00922700
P        6.47405914       9.04368148       1.39111841       0.00000000 NULL       0.00017200       0.00001000       0.00922600
P        3.52007016       5.91078066       6.25562373       0.00000000 NULL       0.00017200      -0.00001100       0.00922600
P        2.38790781       4.05886077       1.39111841       0.00000000 NULL      -0.00017200       0.00001100       0.00922600
P        1.39691895       2.02022168       1.43754407       0.00000000 NULL      -0.00516900       0.00738700      -0.00522700
P        4.51105902       7.94941975       6.30204939       0.00000000 NULL       0.00516800      -0.00738700      -0.00522500
P        1.55707003       7.00504239       1.43754407       0.00000000 NULL       0.00516900       0.00738700      -0.00522700
P        4.35090793       2.96459903       6.30204939       0.00000000 NULL      -0.00516800      -0.00738700      -0.00522500
P        4.51126574       7.95181128       1.06983698       0.00000000 NULL      -0.00443700      -0.00164500      -0.00359200
P        1.39671223       2.01783015       5.93434230       0.00000000 NULL       0.00443700       0.00164500      -0.00359100
P        4.35070121       2.96699057       1.06983698       0.00000000 NULL       0.00443700      -0.00164500      -0.00359200
P        1.55727675       7.00265086       5.93434230       0.00000000 NULL      -0.00443700       0.00164500      -0.00359200
32
Lattice="5.908129226365005 0.0 0.0 0.0 9.968440042747487 0.0 0.0 0.0 9.728422407319576" Properties=species:S:1:pos:R:3:initial_magmoms:R:1:castep_labels:S:1:forces:R:3 n_minim_iter=2 energy=-173.710726413844 stress="-3.5186085860889604e-05 -1.74534156056e-08 -0.0 -1.74534156056e-08 -7.76851528605256e-05 -0.0 -0.0 -0.0 -6.26228551928928e-05" free_energy=-173.710726413844 pbc="T T T"
P        0.25064654       4.54506281       3.81835444       0.00000000 NULL      -0.00125000       0.00287000       0.00109600
P        5.65748269       5.42337723       8.68256564       0.00000000 NULL       0.00125000      -0.00287100       0.00109300
P        2.70341808       9.52928283       3.81835444       0.00000000 NULL       0.00125000       0.00287000       0.00109600
P        3.20471115       0.43915721       8.68256564       0.00000000 NULL      -0.00125000      -0.00287000       0.00109300
P        0.41183871       2.36314649       9.15920003       0.00000000 NULL       0.00270700      -0.00668900      -0.00200400
P        5.49629052       7.60529355       4.29498883       0.00000000 NULL      -0.00270800       0.00669000      -0.00200200
P        2.54222590       7.34736651       9.15920003       0.00000000 NULL      -0.00270600      -0.00669000      -0.00200400
P        3.36590332       2.62107353       4.29498883       0.00000000 NULL       0.00270700       0.00669000      -0.00200200
P        2.35914367       2.37002632       7.94239737       0.00000000 NULL      -0.00427600       0.00135900      -0.00153600
P        3.54898556       7.59841372       3.07818616       0.00000000 NULL       0.00427600      -0.00135900      -0.00153500
P        0.59492094       7.35424635       7.94239737       0.00000000 NULL       0.00427600       0.00135900      -0.00153600
P        5.31320828       2.61419370       3.07818616       0.00000000 NULL      -0.00427600      -0.00135900      -0.00153500
P        5.46793697       0.43422912       8.40698280       0.00000000 NULL      -0.00046200      -0.00209300       0.00238700
P        0.44019226       9.53421093       3.54277160       0.00000000 NULL       0.00046200       0.00209200       0.00238700
P        3.39425687       5.41844914       8.40698280       0.00000000 NULL       0.00046200      -0.00209200       0.00238700
P        2.51387236       4.54999090       3.54277160       0.00000000 NULL      -0.00046200       0.00209200       0.00238700
P        2.54843773       9.04033963       5.96883569       0.00000000 NULL      -0.00220200      -0.00566800       0.00091800
P        3.35969149       0.92810041       1.10462449       0.00000000 NULL       0.00220200       0.00566900       0.00092100
P        0.40562688       4.05611961       5.96883569       0.00000000 NULL       0.00220300      -0.00566800       0.00091800
P        5.50250235       5.91232043       1.10462449       0.00000000 NULL      -0.00220300       0.00566800       0.00092100
P       -0.56609656       0.92584831       6.25529323       0.00000000 NULL       0.00015900      -0.00154700       0.00757400
P        6.47422579       9.04259174       1.39108202       0.00000000 NULL      -0.00015900       0.00154700       0.00757400
P        3.52016117       5.91006833       6.25529323       0.00000000 NULL      -0.00016000      -0.00154600       0.00757400
P        2.38796805       4.05837172       1.39108202       0.00000000 NULL       0.00016000       0.00154600       0.00757400
P        1.39692798       2.02001644       1.43743013       0.00000000 NULL      -0.00522700       0.00580700      -0.00401700
P        4.51120124       7.94842361       6.30164133       0.00000000 NULL       0.00522800      -0.00580700      -0.00402000
P        1.55713663       7.00423646       1.43743013       0.00000000 NULL       0.00522900       0.00580700      -0.00401700
P        4.35099259       2.96420359       6.30164133       0.00000000 NULL      -0.00523000      -0.00580700      -0.00401900
P        4.51135829       7.95084454       1.06975372       0.00000000 NULL      -0.00462700      -0.00004000      -0.00441800
P        1.39677094       2.01759550       5.93396493       0.00000000 NULL       0.00462700       0.00004000      -0.00441800
P        4.35083555       2.96662452       1.06975372       0.00000000 NULL       0.00462500      -0.00004000      -0.00441800
P        1.55729367       7.00181552       5.93396493       0.00000000 NULL      -0.00462600       0.00004000      -0.00441800
