9
Lattice="4.995269999999998 1.1027259915313067e-16 4.824562353432801e-16 0.4554780382887806 6.438128265655834 -2.73134295881608e-15 2.260021459468408 0.5703425896182344 6.114375063840116" Properties=species:S:1:pos:R:3:initial_magmoms:R:1:castep_labels:S:1 n_minim_iter=1 pbc="T T T"
P        2.46258667       4.13547480       2.24189615       0.00000000 NULL
P        4.72458166       2.40824090       2.83027940       0.00000000 NULL
P        6.22424387       2.12953640       6.01765910       0.00000000 NULL
P        3.18902511       6.17743203       5.88330855       0.00000000 NULL
P        4.07965299       4.69079939       3.35706828       0.00000000 NULL
P        5.78352399       3.75357215       4.30744883       0.00000000 NULL
P        2.61678037       5.66529621       0.94595802       0.00000000 NULL
P        4.50071791       3.37772406       0.64001671       0.00000000 NULL
P        5.47649630       5.78467896       4.29549095       0.00000000 NULL
9
Lattice="4.999562906878834 0.001719166669173989 0.00393724313184813 0.45808521274179675 6.4445066189569715 0.0012930869145097727 2.2669793129709026 0.5725586662610708 6.119484747837626" Properties=species:S:1:pos:R:3:initial_magmoms:R:1:castep_labels:S:1 n_minim_iter=2 pbc="T T T"
P        2.46768186       4.14038589       2.24560296       0.00000000 NULL
P        4.73167476       2.41262980       2.83582179       0.00000000 NULL
P        6.23501820       2.13445078       6.02597082       0.00000000 NULL
P        3.19845283       6.18533088       5.88975021       0.00000000 NULL
P        4.08734027       4.69714596       3.36273678       0.00000000 NULL
P        5.79328798       3.75955706       4.31489312       0.00000000 NULL
P        2.62180639       5.67206028       0.94927527       0.00000000 NULL
P        4.50637444       3.38276050       0.64453581       0.00000000 NULL
P        5.48671331       5.79314425       4.30305528       0.00000000 NULL
9
Lattice="5.110540470851486 0.04742232984455472 0.10777862154020088 0.5271086428670231 6.609805461879985 0.035097836782185525 2.449512643756171 0.630623119810216 6.251703954524392" Properties=species:S:1:pos:R:3:initial_magmoms:R:1:castep_labels:S:1 n_minim_iter=3 pbc="T T T"
P        2.60118403       4.26792137       2.34210840       0.00000000 NULL
P        4.91678827       2.52757927       2.98071080       0.00000000 NULL
P        6.51645436       2.26324764       6.24257377       0.00000000 NULL
P        3.44613618       6.39073003       6.05692358       0.00000000 NULL
P        4.28855166       4.86245910       3.51057557       0.00000000 NULL
P        6.04844022       3.91581761       4.50931241       0.00000000 NULL
P        2.75355610       5.84813383       1.03612175       0.00000000 NULL
P        4.65392738       3.51435599       0.76342187       0.00000000 NULL
P        5.75426221       6.01405788       4.50061998       0.00000000 NULL
9
Lattice="5.12866399801005 0.07618848695664387 0.1756670577279327 0.565836294784673 6.642802637191157 0.03238591514065112 2.5440944153500302 0.6378742013444707 6.252776834441115" Properties=species:S:1:pos:R:3:initial_magmoms:R:1:castep_labels:S:1 n_minim_iter=4 pbc="T T T"
P        2.66136732       4.29249612       2.35825712       0.00000000 NULL
P        4.98585268       2.56559708       3.02765013       0.00000000 NULL
P        6.63261140       2.29953015       6.29418674       0.00000000 NULL
P        3.57437471       6.42939812       6.06316565       0.00000000 NULL
P        4.37461331       4.90124349       3.54317527       0.00000000 NULL
P        6.15100517       3.95498856       4.56353630       0.00000000 NULL
P        2.80766698       5.89461075       1.05643389       0.00000000 NULL
P        4.70088355       3.55595388       0.82084855       0.00000000 NULL
P        5.86693992       6.07306349       4.54919742       0.00000000 NULL
9
Lattice="5.122691859146788 0.10479924176925533 0.25398779521636405 0.6021665694579154 6.649964684604589 0.018339812778923964 2.6405262667377847 0.6310999176295342 6.217903815497676" Properties=species:S:1:pos:R:3:initial_magmoms:R:1:castep_labels:S:1 n_minim_iter=5 pbc="T T T"
P        2.71423678       4.29487618       2.35663321       0.00000000 NULL
P        5.03796989       2.59007611       3.06167889       0.00000000 NULL
P        6.73143488       2.31610982       6.31557614       0.00000000 NULL
P        3.70103873       6.43188365       6.02644795       0.00000000 NULL
P        4.44777622       4.91417439       3.55369618       0.00000000 NULL
P        6.23445657       3.96948060       4.59501957       0.00000000 NULL
P        2.84938387       5.91789324       1.06397814       0.00000000 NULL
P        4.72787298       3.58171735       0.87810607       0.00000000 NULL
P        5.96130892       6.10090037       4.57067441       0.00000000 NULL
9
Lattice="5.072281150514422 0.19602201367722813 0.5802443878381393 0.7151420313679946 6.6886628058688595 -0.05055448816968196 3.027483152552966 0.5813808392265025 6.06291679650808" Properties=species:S:1:pos:R:3:initial_magmoms:R:1:castep_labels:S:1 n_minim_iter=6 pbc="T T T"
P        2.89865323       4.29290839       2.33903673       0.00000000 NULL
P        5.21843294       2.66732413       3.19609916       0.00000000 NULL
P        7.09880170       2.34515864       6.39223480       0.00000000 NULL
P        4.18248479       6.42654597       5.85635307       0.00000000 NULL
P        4.70501991       4.94808708       3.58624768       0.00000000 NULL
P        6.53052626       3.99492717       4.71463748       0.00000000 NULL
P        2.97286730       6.01242241       1.08142931       0.00000000 NULL
P        4.80114363       3.66592072       1.11157859       0.00000000 NULL
P        6.29288201       6.18936989       4.64431053       0.00000000 NULL
9
Lattice="5.172740803442344 0.14316743792416928 0.718934414786339 0.6561807795273087 6.940349078689384 -0.04622912513402557 3.23666075420314 0.5722888790827764 6.06265594471809" Properties=species:S:1:pos:R:3:initial_magmoms:R:1:castep_labels:S:1 n_minim_iter=7 pbc="T T T"
P        2.95774597       4.40705639       2.36790823       0.00000000 NULL
P        5.37136334       2.72809605       3.30076590       0.00000000 NULL
P        7.36439982       2.35661859       6.49253841       0.00000000 NULL
P        4.36519316       6.63233766       5.87918756       0.00000000 NULL
P        4.82490231       5.07991055       3.66217594       0.00000000 NULL
P        6.72334914       4.04588257       4.83074032       0.00000000 NULL
P        2.96520776       6.24747666       1.11517793       0.00000000 NULL
P        4.89809114       3.73294432       1.23952387       0.00000000 NULL
P        6.46001224       6.37850648       4.75822456       0.00000000 NULL
9
Lattice="5.120535376392214 0.11553714641566147 0.6982920224580762 0.6158094309815744 6.7874572248442195 -0.047962435207411905 3.184619634032499 0.546608221031652 5.903776431257431" Properties=species:S:1:pos:R:3:initial_magmoms:R:1:castep_labels:S:1 n_minim_iter=8 pbc="T T T"
P        2.90117793       4.29832702       2.29938685       0.00000000 NULL
P        5.29809344       2.65216121       3.21357927       0.00000000 NULL
P        7.26350195       2.27786657       6.31810415       0.00000000 NULL
P        4.27984589       6.46987433       5.72320629       0.00000000 NULL
P        4.74249229       4.94467533       3.56481323       0.00000000 NULL
P        6.62128626       3.92414922       4.70157879       0.00000000 NULL
P        2.89541431       6.10231575       1.07826628       0.00000000 NULL
P        4.83297280       3.62169923       1.20717480       0.00000000 NULL
P        6.35030511       6.21201138       4.63313669       0.00000000 NULL
9
Lattice="5.175604254676864 0.09898578994930217 0.7178541183439737 0.5994985826692397 6.821506548455907 -0.032976637631106885 3.231589446363887 0.5548081168786919 5.918621894273196" Properties=species:S:1:pos:R:3:initial_magmoms:R:1:castep_labels:S:1 n_minim_iter=9 pbc="T T T"
P        2.92224047       4.31532016       2.31587426       0.00000000 NULL
P        5.35470315       2.65798272       3.24167518       0.00000000 NULL
P        7.34753679       2.28162580       6.34953594       0.00000000 NULL
P        4.31972958       6.50505904       5.75241878       0.00000000 NULL
P        4.78381299       4.96263914       3.59390617       0.00000000 NULL
P        6.68805060       3.93043353       4.73565423       0.00000000 NULL
P        2.90476908       6.13244552       1.09893281       0.00000000 NULL
P        4.87912133       3.62389531       1.23393830       0.00000000 NULL
P        6.40890557       6.23740420       4.67252531       0.00000000 NULL
9
Lattice="5.204278722308949 0.08091863129084245 0.7283925882073876 0.5788274088241667 6.814847892765378 -0.024102208404194664 3.2553992903713027 0.5537055784717333 5.8965912498536035" Properties=species:S:1:pos:R:3:initial_magmoms:R:1:castep_labels:S:1 n_minim_iter=10 pbc="T T T"
P        2.92592984       4.30432998       2.31308337       0.00000000 NULL
P        5.38041843       2.64537975       3.24420996       0.00000000 NULL
P        7.38756924       2.26602642       6.33632923       0.00000000 NULL
P        4.33119097       6.49531845       5.74005012       0.00000000 NULL
P        4.79632966       4.94682678       3.59412625       0.00000000 NULL
P        6.71501289       3.90874382       4.73329824       0.00000000 NULL
P        2.89632011       6.12411115       1.10506435       0.00000000 NULL
P        4.89853474       3.60260625       1.24611448       0.00000000 NULL
P        6.42826848       6.22003649       4.67418259       0.00000000 NULL
9
Lattice="5.488624497493723 -0.09362867656286045 0.8326789825957494 0.379790179503189 6.755051320369534 0.05052095644135105 3.4917672784081026 0.532687148105911 5.716150931183136" Properties=species:S:1:pos:R:3:initial_magmoms:R:1:castep_labels:S:1 n_minim_iter=11 pbc="T T T"
P        2.96902732       4.19535431       2.29482025       0.00000000 NULL
P        5.63758942       2.51817929       3.28285636       0.00000000 NULL
P        7.78520004       2.10435263       6.24023929       0.00000000 NULL
P        4.45099700       6.39325603       5.64273283       0.00000000 NULL
P        4.92422633       4.79277117       3.60703563       0.00000000 NULL
P        6.98578861       3.69753500       4.72831017       0.00000000 NULL
P        2.81497257       6.04612730       1.16136936       0.00000000 NULL
P        5.09492844       3.40166171       1.36197867       0.00000000 NULL
P        6.62516466       6.04819849       4.70314738       0.00000000 NULL
