10
Lattice="5.865650000000001 3.188371320557036e-15 -2.4247433671607865e-15 1.227220685397277 5.735832922238325 -2.424743367160785e-15 1.7047338072556724 1.3785769865282833 6.642052247574856" Properties=species:S:1:pos:R:3:initial_magmoms:R:1:castep_labels:S:1 n_minim_iter=1 pbc="T T T"
P        6.18388611       4.79538227       3.44519663       0.00000000 NULL
P        1.58425239       1.48652340       0.12417051       0.00000000 NULL
P        6.33597997       5.51320089       6.55441900       0.00000000 NULL
P        2.31800576       1.48506800       3.23339288       0.00000000 NULL
P        2.14989621       1.78254140       5.40180309       0.00000000 NULL
P        4.88696381       3.90799705       2.08077697       0.00000000 NULL
P        4.86205139       3.89112820       4.72656475       0.00000000 NULL
P        0.42345467       0.38313267       1.40553863       0.00000000 NULL
P        5.52863041       5.68508091       1.35032059       0.00000000 NULL
P        4.02190061       2.03820246       4.67134671       0.00000000 NULL
10
Lattice="5.8736586548769445 0.005426454310119623 -0.0030607558394022327 1.234202626394469 5.742529000137326 -0.003060755839402233 1.7048708269461368 1.378687791036982 6.646414217870069" Properties=species:S:1:pos:R:3:initial_magmoms:R:1:castep_labels:S:1 n_minim_iter=2 pbc="T T T"
P        6.19521143       4.80436914       3.44297963       0.00000000 NULL
P        1.58784607       1.48960116       0.12283328       0.00000000 NULL
P        6.34634445       5.52164096       6.55452552       0.00000000 NULL
P        2.32086369       1.48732058       3.23437917       0.00000000 NULL
P        2.15130817       1.78388019       5.40472897       0.00000000 NULL
P        4.89599518       3.91510353       2.07846111       0.00000000 NULL
P        4.86978975       3.89758436       4.72666318       0.00000000 NULL
P        0.42382317       0.38323233       1.40651683       0.00000000 NULL
P        5.54054823       5.69535129       1.34604975       0.00000000 NULL
P        4.02701036       2.04170187       4.67231761       0.00000000 NULL
10
Lattice="6.062770015488188 0.13477772655441758 -0.07658046734163138 1.4002573107786376 5.900391915787355 -0.0765804673416313 1.706982008458811 1.380395052449508 6.745291026119074" Properties=species:S:1:pos:R:3:initial_magmoms:R:1:castep_labels:S:1 n_minim_iter=3 pbc="T T T"
P        6.46305363       5.01695096       3.38660766       0.00000000 NULL
P        1.67312284       1.56257811       0.09054261       0.00000000 NULL
P        6.59089940       5.72067304       6.55130350       0.00000000 NULL
P        2.38801842       1.54036057       3.25523846       0.00000000 NULL
P        2.18361443       1.81460753       5.47033235       0.00000000 NULL
P        5.10932906       4.08301943       2.02110637       0.00000000 NULL
P        5.05237241       4.04993709       4.72472378       0.00000000 NULL
P        0.43236569       0.38543791       1.42865873       0.00000000 NULL
P        5.82290145       5.93826645       1.24227115       0.00000000 NULL
P        4.14709635       2.12422957       4.69149713       0.00000000 NULL
10
Lattice="6.10042442409657 0.1731840549033938 -0.10923212501746704 1.4456917556751043 5.929177533061374 -0.10923212501746693 1.6899784039977606 1.366644648897783 6.698502227347959" Properties=species:S:1:pos:R:3:initial_magmoms:R:1:castep_labels:S:1 n_minim_iter=4 pbc="T T T"
P        6.51810419       5.05950766       3.31467785       0.00000000 NULL
P        1.69321283       1.58078575       0.07465886       0.00000000 NULL
P        6.63274311       5.75297461       6.46158611       0.00000000 NULL
P        2.39531708       1.54779924       3.22156712       0.00000000 NULL
P        2.17388809       1.80913379       5.42592070       0.00000000 NULL
P        5.15198773       4.11512475       1.96743747       0.00000000 NULL
P        5.08229319       4.07789682       4.65872975       0.00000000 NULL
P        0.43292407       0.38212594       1.41871076       0.00000000 NULL
P        5.88501376       5.99163436       1.17673939       0.00000000 NULL
P        4.16223214       2.13333032       4.63522263       0.00000000 NULL
10
Lattice="6.125236963472503 0.22174500352549667 -0.15169543850169726 1.4983692849209955 5.943280928181312 -0.15169543850169712 1.6605187932410714 1.3428213744085937 6.5957499620785836" Properties=species:S:1:pos:R:3:initial_magmoms:R:1:castep_labels:S:1 n_minim_iter=5 pbc="T T T"
P        6.56463311       5.09405454       3.19965888       0.00000000 NULL
P        1.71271474       1.59963641       0.05347934       0.00000000 NULL
P        6.66089644       5.77170195       6.30367514       0.00000000 NULL
P        2.39550501       1.55199079       3.15749559       0.00000000 NULL
P        2.14965679       1.79330437       5.33477269       0.00000000 NULL
P        5.18491377       4.13798539       1.88520227       0.00000000 NULL
P        5.09993514       4.09893491       4.54272528       0.00000000 NULL
P        0.43317240       0.37555529       1.39654574       0.00000000 NULL
P        5.94047614       6.03762858       1.08229144       0.00000000 NULL
P        4.16533752       2.13469843       4.53186186       0.00000000 NULL
10
Lattice="6.119349513828036 0.2884877085194224 -0.1865751413633499 1.5624030756578235 5.923559762467936 -0.18657514136334985 1.6349974296903735 1.322182865155086 6.473157078706853" Properties=species:S:1:pos:R:3:initial_magmoms:R:1:castep_labels:S:1 n_minim_iter=6 pbc="T T T"
P        6.60340923       5.12032537       3.08652607       0.00000000 NULL
P        1.73020448       1.61886641       0.03652268       0.00000000 NULL
P        6.68405201       5.78157123       6.13453816       0.00000000 NULL
P        2.39368801       1.55937750       3.08453476       0.00000000 NULL
P        2.11950450       1.77472001       5.23208612       0.00000000 NULL
P        5.20226607       4.14621870       1.80893244       0.00000000 NULL
P        5.10938933       4.11799437       4.41983687       0.00000000 NULL
P        0.43747557       0.36762107       1.36983347       0.00000000 NULL
P        5.98369772       6.06703014       0.99471359       0.00000000 NULL
P        4.16129741       2.13698197       4.41786727       0.00000000 NULL
10
Lattice="6.100579041179262 0.33885393472346487 -0.19129704148928336 1.6077274209768915 5.894667010662458 -0.1912970414892833 1.6360326011882218 1.3230199833010219 6.488537903905856" Properties=species:S:1:pos:R:3:initial_magmoms:R:1:castep_labels:S:1 n_minim_iter=7 pbc="T T T"
P        6.63377657       5.13885714       3.08926319       0.00000000 NULL
P        1.74088508       1.63352913       0.03629128       0.00000000 NULL
P        6.71129826       5.79538667       6.13863167       0.00000000 NULL
P        2.39910368       1.57197496       3.08565976       0.00000000 NULL
P        2.10723868       1.77055648       5.25089696       0.00000000 NULL
P        5.20838776       4.14541362       1.81533097       0.00000000 NULL
P        5.12114328       4.13809801       4.42572960       0.00000000 NULL
P        0.44579894       0.36375348       1.37275769       0.00000000 NULL
P        6.00781804       6.08007491       0.98597671       0.00000000 NULL
P        4.16634061       2.14752104       4.42154271       0.00000000 NULL
10
Lattice="6.062049557686083 0.3323663740397596 -0.19959504395570607 1.593322241108485 5.858347589758004 -0.19959504395570601 1.6139136747475622 1.3051329426216953 6.432746536296478" Properties=species:S:1:pos:R:3:initial_magmoms:R:1:castep_labels:S:1 n_minim_iter=8 pbc="T T T"
P        6.58677689       5.09820913       3.04807831       0.00000000 NULL
P        1.72883013       1.62642108       0.03130009       0.00000000 NULL
P        6.65673463       5.74773335       6.07106098       0.00000000 NULL
P        2.37861592       1.55893604       3.05428275       0.00000000 NULL
P        2.07813833       1.74919588       5.20672079       0.00000000 NULL
P        5.16600361       4.10896644       1.79075248       0.00000000 NULL
P        5.07718525       4.10686207       4.37698294       0.00000000 NULL
P        0.44358413       0.35765056       1.36020472       0.00000000 NULL
P        5.96098168       6.03969831       0.95990161       0.00000000 NULL
P        4.13246631       2.12262888       4.37586992       0.00000000 NULL
10
Lattice="6.059988466209214 0.34269074434902436 -0.20058676864426828 1.6029868902141 5.854172032546782 -0.20058676864426822 1.6146181558863333 1.305702639474787 6.440263205622008" Properties=species:S:1:pos:R:3:initial_magmoms:R:1:castep_labels:S:1 n_minim_iter=9 pbc="T T T"
P        6.59609827       5.10330253       3.05080814       0.00000000 NULL
P        1.73160702       1.63111126       0.03126331       0.00000000 NULL
P        6.66475821       5.75211152       6.07555034       0.00000000 NULL
P        2.38042187       1.56250678       3.05600550       0.00000000 NULL
P        2.07477038       1.74834722       5.21501790       0.00000000 NULL
P        5.16791863       4.10864015       1.79429953       0.00000000 NULL
P        5.08079311       4.11298843       4.38119597       0.00000000 NULL
P        0.44617573       0.35653755       1.36165114       0.00000000 NULL
P        5.96710815       6.04464875       0.95882082       0.00000000 NULL
P        4.13513944       2.12479447       4.37953919       0.00000000 NULL
10
Lattice="6.048699951024672 0.34708937479353036 -0.20327774282366842 1.6049263700627898 5.842213063411632 -0.20327774282366837 1.6093240019797397 1.3014213852943952 6.430261898661489" Properties=species:S:1:pos:R:3:initial_magmoms:R:1:castep_labels:S:1 n_minim_iter=10 pbc="T T T"
P        6.59000782       5.09562278       3.04179207       0.00000000 NULL
P        1.73014458       1.63268317       0.02993886       0.00000000 NULL
P        6.65560823       5.74224738       6.06048227       0.00000000 NULL
P        2.37618327       1.56154389       3.04862907       0.00000000 NULL
P        2.06442015       1.74203178       5.20894410       0.00000000 NULL
P        5.15755003       4.09820077       1.79053541       0.00000000 NULL
P        5.07131657       4.10896336       4.37105505       0.00000000 NULL
P        0.44757864       0.35403367       1.35920185       0.00000000 NULL
P        5.95819676       6.03735707       0.95142604       0.00000000 NULL
P        4.12817213       2.11924542       4.36983473       0.00000000 NULL
10
Lattice="5.962554564633209 0.382913611193182 -0.2238853651082756 1.6219342778690902 5.750479020754584 -0.2238853651082755 1.569371841763433 1.2691130399082287 6.353607320621282" Properties=species:S:1:pos:R:3:initial_magmoms:R:1:castep_labels:S:1 n_minim_iter=11 pbc="T T T"
P        6.55111322       5.03804302       2.97235045       0.00000000 NULL
P        1.72024638       1.65080538       0.01943215       0.00000000 NULL
P        6.59062741       5.66824161       5.94248745       0.00000000 NULL
P        2.34476480       1.55759389       2.98956916       0.00000000 NULL
P        1.97856200       1.69148235       5.16650571       0.00000000 NULL
P        5.07556330       4.01301812       1.76581668       0.00000000 NULL
P        4.99908184       4.08365516       4.29284813       0.00000000 NULL
P        0.46226231       0.33280172       1.33992983       0.00000000 NULL
P        5.88978845       5.98573641       0.89406031       0.00000000 NULL
P        4.07797408       2.07495199       4.29474934       0.00000000 NULL
10
Lattice="5.997646320922584 0.31354822005316263 -0.21835489460518923 1.5614460174103821 5.799306873402024 -0.21835489460518911 1.569530433812138 1.2692412894611267 6.274682888621528" Properties=species:S:1:pos:R:3:initial_magmoms:R:1:castep_labels:S:1 n_minim_iter=12 pbc="T T T"
P        6.57322100       5.01064038       2.93350459       0.00000000 NULL
P        1.71069459       1.68836174       0.01451804       0.00000000 NULL
P        6.58858896       5.65267105       5.85771891       0.00000000 NULL
P        2.34173131       1.56906290       2.93873236       0.00000000 NULL
P        1.92791057       1.67685298       5.12953241       0.00000000 NULL
P        5.03788278       3.95621558       1.77383607       0.00000000 NULL
P        4.97322788       4.10437842       4.23715916       0.00000000 NULL
P        0.48973667       0.31338885       1.31817261       0.00000000 NULL
P        5.83758834       6.00983138       0.88667271       0.00000000 NULL
P        4.10339194       2.02919887       4.24236905       0.00000000 NULL
10
Lattice="5.886801527187171 0.2686276327846451 -0.2510096427717783 1.4943284759475035 5.700313625719298 -0.2510096427717781 1.4897810627240846 1.2047499024749788 6.191892935053991" Properties=species:S:1:pos:R:3:initial_magmoms:R:1:castep_labels:S:1 n_minim_iter=13 pbc="T T T"
P        6.40342717       4.86815895       2.83886289       0.00000000 NULL
P        1.66469784       1.65633855      -0.00607394       0.00000000 NULL
P        6.39384607       5.48799553       5.73021473       0.00000000 NULL
P        2.26881179       1.51728630       2.88527790       0.00000000 NULL
P        1.83966762       1.60940288       5.06007533       0.00000000 NULL
P        4.90435666       3.84432640       1.71311922       0.00000000 NULL
P        4.82066308       3.98930077       4.14274570       0.00000000 NULL
P        0.47414189       0.29247991       1.29780888       0.00000000 NULL
P        5.68008567       5.87711207       0.81867045       0.00000000 NULL
P        3.98976346       1.94266098       4.16562656       0.00000000 NULL
10
Lattice="5.936135728917432 0.29975225189349225 -0.23626203579481617 1.5350860335647483 5.74204403276392 -0.23626203579481603 1.5281338013343242 1.235764834303852 6.274605702371074" Properties=species:S:1:pos:R:3:initial_magmoms:R:1:castep_labels:S:1 n_minim_iter=14 pbc="T T T"
P        6.49391527       4.93777375       2.90344787       0.00000000 NULL
P        1.68748177       1.67832410       0.00240705       0.00000000 NULL
P        6.49424082       5.56810887       5.83016176       0.00000000 NULL
P        2.30393458       1.54676271       2.92912094       0.00000000 NULL
P        1.87552968       1.64046889       5.13206228       0.00000000 NULL
P        4.96810775       3.89381513       1.75849739       0.00000000 NULL
P        4.89279713       4.05102251       4.21668937       0.00000000 NULL
P        0.48536738       0.29816901       1.31564856       0.00000000 NULL
P        5.75889517       5.94683077       0.85981298       0.00000000 NULL
P        4.04855831       1.98421958       4.23337786       0.00000000 NULL
