12
Lattice="4.8844464099468965 0.0 0.0 0.0 4.961965224747703 0.0 0.0 0.0 9.859683559133545" Properties=species:S:1:pos:R:3:initial_magmoms:R:1:castep_labels:S:1:forces:R:3 n_minim_iter=1 energy=-62.820614990901 stress="0.0013507070195549616 -0.0 -0.0 -0.0 0.0009838312739640347 -0.0 -0.0 -0.0 0.0005990867085524936" free_energy=-62.820614990901 pbc="T T T"
P        4.86017104       0.77391194       7.28444841       0.00000000 NULL       0.01544000      -0.00263600       0.00983600
P        0.02427537       0.77391194       2.57523514       0.00000000 NULL      -0.01544000      -0.00263600      -0.00983600
P        2.41794783       0.77391194       7.50507692       0.00000000 NULL       0.01543900      -0.00263500      -0.00983500
P        2.46649858       0.77391194       2.35460663       0.00000000 NULL      -0.01543900      -0.00263500       0.00983500
P        4.14762368       2.38793715       5.78808030       0.00000000 NULL       0.02979600       0.00793500      -0.03336300
P        0.73682273       2.38793715       4.07160326       0.00000000 NULL      -0.02979600       0.00793500       0.03336300
P        1.70540047       2.38793715       9.00144504       0.00000000 NULL       0.02980100       0.00793700       0.03336600
P        3.17904594       2.38793715       0.85823852       0.00000000 NULL      -0.02980100       0.00793700      -0.03336600
P        3.15944701       4.10821471       8.98691185       0.00000000 NULL      -0.02477400      -0.00530100       0.02972300
P        1.72499940       4.10821471       0.87277170       0.00000000 NULL       0.02477400      -0.00530100      -0.02972300
P        0.71722380       4.10821471       5.80261348       0.00000000 NULL      -0.02476900      -0.00530000      -0.02972000
P        4.16722261       4.10821471       4.05707007       0.00000000 NULL       0.02476900      -0.00530000       0.02972000
12
Lattice="4.8792530114640345 0.0 0.0 0.0 4.958121854567403 0.0 0.0 0.0 9.855032452124394" Properties=species:S:1:pos:R:3:initial_magmoms:R:1:castep_labels:S:1:forces:R:3 n_minim_iter=2 energy=-62.820947089077 stress="0.00023589390866995898 -0.0 0.0 -0.0 -0.00015921999952189978 0.0 0.0 0.0 -0.00037070241195325345" free_energy=-62.820947089077 pbc="T T T"
P        4.85505428       0.77330381       7.28104452       0.00000000 NULL       0.01566800      -0.00238900       0.01497100
P        0.02419873       0.77330381       2.57398793       0.00000000 NULL      -0.01566800      -0.00238900      -0.01497100
P        2.41542778       0.77330381       7.50150415       0.00000000 NULL       0.01566800      -0.00238900      -0.01497200
P        2.46382524       0.77330381       2.35352830       0.00000000 NULL      -0.01566800      -0.00238900       0.01497200
P        4.14331182       2.38611367       5.78523997       0.00000000 NULL       0.00892000       0.00039800      -0.02613100
P        0.73594120       2.38611367       4.06979248       0.00000000 NULL      -0.00892000       0.00039800       0.02613100
P        1.70368531       2.38611367       8.99730871       0.00000000 NULL       0.00891900       0.00039800       0.02612900
P        3.17556770       2.38611367       0.85772375       0.00000000 NULL      -0.00891900       0.00039800      -0.02612900
P        3.15600616       4.10501517       8.98277037       0.00000000 NULL      -0.00405700       0.00199100       0.02204300
P        1.72324685       4.10501517       0.87226208       0.00000000 NULL       0.00405700       0.00199100      -0.02204300
P        0.71637965       4.10501517       5.79977831       0.00000000 NULL      -0.00405800       0.00199100      -0.02204500
P        4.16287336       4.10501517       4.05525415       0.00000000 NULL       0.00405800       0.00199100       0.02204500
12
Lattice="4.874260800768954 0.0 0.0 0.0 4.959462161065351 0.0 0.0 0.0 9.864938581924246" Properties=species:S:1:pos:R:3:initial_magmoms:R:1:castep_labels:S:1:forces:R:3 n_minim_iter=3 energy=-62.821075408391 stress="-0.00020845197370904017 -0.0 0.0 -0.0 0.00017465348430862045 -0.0 0.0 -0.0 0.00010395341839161348" free_energy=-62.821075408391 pbc="T T T"
P        4.85030218       0.77347970       7.28856518       0.00000000 NULL       0.01523000      -0.00208800       0.00160000
P        0.02395862       0.77347970       2.57637340       0.00000000 NULL      -0.01523000      -0.00208800      -0.00160000
P        2.41317178       0.77347970       7.50884269       0.00000000 NULL       0.01523000      -0.00208800      -0.00160000
P        2.46108902       0.77347970       2.35609589       0.00000000 NULL      -0.01523000      -0.00208800       0.00160000
P        4.13921465       2.38677118       5.79068784       0.00000000 NULL       0.00416500      -0.00037200      -0.02754200
P        0.73504615       2.38677118       4.07425074       0.00000000 NULL      -0.00416500      -0.00037200       0.02754200
P        1.70208425       2.38677118       9.00672003       0.00000000 NULL       0.00416400      -0.00037200       0.02754300
P        3.17217655       2.38677118       0.85821855       0.00000000 NULL      -0.00416400      -0.00037200      -0.02754300
P        3.15270207       4.10614554       8.99211110       0.00000000 NULL       0.00040900       0.00246000       0.02513100
P        1.72155873       4.10614554       0.87282748       0.00000000 NULL      -0.00040900       0.00246000      -0.02513100
P        0.71557167       4.10614554       5.80529677       0.00000000 NULL       0.00040900       0.00246000      -0.02512900
P        4.15868913       4.10614554       4.05964181       0.00000000 NULL      -0.00040900       0.00246000       0.02512900
12
Lattice="4.879496593699421 0.0 0.0 0.0 4.949552995040912 0.0 0.0 0.0 9.88792451242478" Properties=species:S:1:pos:R:3:initial_magmoms:R:1:castep_labels:S:1:forces:R:3 n_minim_iter=4 energy=-62.821588972247 stress="0.00010079288872516683 0.0 0.0 0.0 -0.0001502052728945465 0.0 0.0 0.0 0.00017842895673366677" free_energy=-62.821588972247 pbc="T T T"
P        4.85773426       0.77161627       7.30650776       0.00000000 NULL       0.01109900      -0.00105500      -0.00158300
P        0.02176233       0.77161627       2.58141675       0.00000000 NULL      -0.01109900      -0.00105500       0.00158300
P        2.41798596       0.77161627       7.52537901       0.00000000 NULL       0.01110000      -0.00105600       0.00158400
P        2.46151063       0.77161627       2.36254550       0.00000000 NULL      -0.01110000      -0.00105600      -0.00158400
P        4.14454692       2.38199975       5.80025083       0.00000000 NULL      -0.00967700      -0.01075900      -0.00102900
P        0.73494967       2.38199975       4.08767369       0.00000000 NULL       0.00967700      -0.01075900       0.00102900
P        1.70479862       2.38199975       9.03163594       0.00000000 NULL      -0.00967900      -0.01076000       0.00103000
P        3.17469797       2.38199975       0.85628857       0.00000000 NULL       0.00967900      -0.01076000      -0.00103000
P        3.15587869       4.09826190       9.01655145       0.00000000 NULL       0.01269100       0.01181500       0.00865400
P        1.72361791       4.09826190       0.87137306       0.00000000 NULL      -0.01269100       0.01181500      -0.00865400
P        0.71613039       4.09826190       5.81533532       0.00000000 NULL       0.01268900       0.01181500      -0.00865300
P        4.16336620       4.09826190       4.07258920       0.00000000 NULL      -0.01268900       0.01181500       0.00865300
12
Lattice="4.8783717006004625 0.0 0.0 0.0 4.952728269061134 0.0 0.0 0.0 9.882525956601254" Properties=species:S:1:pos:R:3:initial_magmoms:R:1:castep_labels:S:1:forces:R:3 n_minim_iter=5 energy=-62.82166577264 stress="3.208052095466905e-05 0.0 0.0 0.0 0.0001128681514005654 -0.0 0.0 -0.0 -6.851662177785714e-05" free_energy=-62.82166577264 pbc="T T T"
P        4.85718076       0.77204246       7.30261816       0.00000000 NULL       0.01035800      -0.00084200      -0.00270900
P        0.02119094       0.77204246       2.57990780       0.00000000 NULL      -0.01035800      -0.00084200       0.00270900
P        2.41799491       0.77204246       7.52117078       0.00000000 NULL       0.01035800      -0.00084300       0.00270900
P        2.46037679       0.77204246       2.36135518       0.00000000 NULL      -0.01035800      -0.00084300      -0.00270900
P        4.14348763       2.38328144       5.79650504       0.00000000 NULL      -0.00868300      -0.00450500       0.00804100
P        0.73488407       2.38328144       4.08602092       0.00000000 NULL       0.00868300      -0.00450500      -0.00804100
P        1.70430178       2.38328144       9.02728390       0.00000000 NULL      -0.00868500      -0.00450600      -0.00804200
P        3.17406992       2.38328144       0.85524206       0.00000000 NULL       0.00868500      -0.00450600       0.00804200
P        3.15541892       4.10120631       9.01231827       0.00000000 NULL       0.01265200       0.00534800      -0.00016100
P        1.72295278       4.10120631       0.87020768       0.00000000 NULL      -0.01265200       0.00534800       0.00016100
P        0.71623307       4.10120631       5.81147066       0.00000000 NULL       0.01265000       0.00534700       0.00016000
P        4.16213863       4.10120631       4.07105529       0.00000000 NULL      -0.01265000       0.00534700      -0.00016000
12
Lattice="4.875887358754678 0.0 0.0 0.0 4.947478130788938 0.0 0.0 0.0 9.891131780740682" Properties=species:S:1:pos:R:3:initial_magmoms:R:1:castep_labels:S:1:forces:R:3 n_minim_iter=6 energy=-62.821799022309 stress="2.8372994059393253e-05 -0.0 -0.0 -0.0 -2.0745394474741008e-05 -0.0 -0.0 -0.0 2.6067950228866474e-05" free_energy=-62.821799022309 pbc="T T T"
P        4.85661736       0.77102869       7.30891621       0.00000000 NULL       0.00789500      -0.00085600      -0.00901200
P        0.01927000       0.77102869       2.58221558       0.00000000 NULL      -0.00789500      -0.00085600       0.00901200
P        2.41867368       0.77102869       7.52778147       0.00000000 NULL       0.00789500      -0.00085500       0.00901200
P        2.45721368       0.77102869       2.36335031       0.00000000 NULL      -0.00789500      -0.00085500      -0.00901200
P        4.14041768       2.37993683       5.80123324       0.00000000 NULL       0.00825000       0.00498100       0.00378700
P        0.73546968       2.37993683       4.08989855       0.00000000 NULL      -0.00825000       0.00498100      -0.00378700
P        1.70247400       2.37993683       9.03546444       0.00000000 NULL       0.00825400       0.00498300      -0.00378500
P        3.17341336       2.37993683       0.85566734       0.00000000 NULL      -0.00825400       0.00498300       0.00378500
P        3.15541144       4.09787235       9.02136617       0.00000000 NULL       0.00027000      -0.00412700       0.00239400
P        1.72047592       4.09787235       0.86976561       0.00000000 NULL      -0.00027000      -0.00412700      -0.00239400
P        0.71746776       4.09787235       5.81533150       0.00000000 NULL       0.00027400      -0.00412600      -0.00239200
P        4.15841960       4.09787235       4.07580028       0.00000000 NULL      -0.00027400      -0.00412600       0.00239200
12
Lattice="4.863139054526013 0.0 0.0 0.0 4.949894853918023 0.0 0.0 0.0 9.916509377171156" Properties=species:S:1:pos:R:3:initial_magmoms:R:1:castep_labels:S:1:forces:R:3 n_minim_iter=7 energy=-62.8222681962 stress="-4.3776880472422404e-05 0.0 0.0 0.0 -9.216185362615244e-07 -0.0 0.0 -0.0 -2.5847210766970935e-05" free_energy=-62.8222681962 pbc="T T T"
P        4.85983482       0.76974234       7.31815920       0.00000000 NULL      -0.00446600      -0.00686300       0.00482500
P        0.00330423       0.76974234       2.59835018       0.00000000 NULL       0.00446600      -0.00686300      -0.00482500
P        2.42826529       0.76974234       7.55660486       0.00000000 NULL      -0.00446600      -0.00686300      -0.00482600
P        2.43487376       0.76974234       2.35990451       0.00000000 NULL       0.00446600      -0.00686300       0.00482600
P        4.13333842       2.38273085       5.81917528       0.00000000 NULL       0.00745100      -0.00017200      -0.00042200
P        0.72980063       2.38273085       4.09733410       0.00000000 NULL      -0.00745100      -0.00017200       0.00042200
P        1.70176889       2.38273085       9.05558878       0.00000000 NULL       0.00745000      -0.00017200       0.00042000
P        3.16137016       2.38273085       0.86092059       0.00000000 NULL      -0.00745000      -0.00017200      -0.00042000
P        3.15463677       4.09990535       9.05149206       0.00000000 NULL       0.00776100       0.00703500      -0.00271300
P        1.70850228       4.09990535       0.86501732       0.00000000 NULL      -0.00776100       0.00703500       0.00271300
P        0.72306725       4.09990535       5.82327200       0.00000000 NULL       0.00776000       0.00703500       0.00271100
P        4.14007181       4.09990535       4.09323737       0.00000000 NULL      -0.00776000       0.00703500      -0.00271100
12
Lattice="4.862759774504552 0.0 0.0 0.0 4.949399129820935 0.0 0.0 0.0 9.918265292714192" Properties=species:S:1:pos:R:3:initial_magmoms:R:1:castep_labels:S:1:forces:R:3 n_minim_iter=8 energy=-62.822340632049 stress="-3.7744509098676e-05 0.0 0.0 0.0 -0.0 0.0 0.0 0.0 -2.5260753592121674e-05" free_energy=-62.822340632049 pbc="T T T"
P        4.86053252       0.76839271       7.31903748       0.00000000 NULL      -0.00148700      -0.00257300       0.00543100
P        0.00222725       0.76839271       2.59922781       0.00000000 NULL       0.00148700      -0.00257300      -0.00543100
P        2.42915263       0.76839271       7.55836046       0.00000000 NULL      -0.00148700      -0.00257300      -0.00543200
P        2.43360714       0.76839271       2.35990484       0.00000000 NULL       0.00148700      -0.00257300       0.00543200
P        4.13488725       2.38277464       5.82050232       0.00000000 NULL      -0.00106400       0.00051700       0.00617400
P        0.72787252       2.38277464       4.09776297       0.00000000 NULL       0.00106400       0.00051700      -0.00617400
P        1.70350737       2.38277464       9.05689562       0.00000000 NULL      -0.00106600       0.00051600      -0.00617600
P        3.15925241       2.38277464       0.86136967       0.00000000 NULL       0.00106600       0.00051600       0.00617600
P        3.15625947       4.10048485       9.05346140       0.00000000 NULL      -0.00185300       0.00205700       0.00531500
P        1.70650031       4.10048485       0.86480390       0.00000000 NULL       0.00185300       0.00205700      -0.00531500
P        0.72487958       4.10048485       5.82393654       0.00000000 NULL      -0.00185600       0.00205700      -0.00531700
P        4.13788019       4.10048485       4.09432875       0.00000000 NULL       0.00185600       0.00205700       0.00531700
