13
Lattice="3.8910299999999993 4.615293534957333e-16 1.2515703188492163e-15 1.3263446496968725 6.188062249389585 -1.7136819971885744e-15 1.6462004106629933 1.763160706237053 12.135615349573934" Properties=species:S:1:pos:R:3:initial_magmoms:R:1:castep_labels:S:1 n_minim_iter=1 pbc="T T T"
P        2.57533669       6.22863753       0.81662376       0.00000000 NULL
P        1.13245445       2.84350332       2.80075682       0.00000000 NULL
P        2.18411887       3.56946237      11.46279135       0.00000000 NULL
P        3.49604075       6.01806259      10.56232748       0.00000000 NULL
P        0.92694873       3.15607618       0.79092174       0.00000000 NULL
P        2.66486477       1.56671970       8.00351478       0.00000000 NULL
P        4.20351492       4.40444501      11.50896615       0.00000000 NULL
P        1.31779334       1.95304983       5.16277960       0.00000000 NULL
P        2.73895381       1.81805951       1.79191220       0.00000000 NULL
P        1.85258881       3.96377251       5.53895576       0.00000000 NULL
P        2.64949632       4.22113730       0.98407705       0.00000000 NULL
P        4.13469167       5.83370224       8.66376992       0.00000000 NULL
P        2.49177698       5.34081632       7.61783400       0.00000000 NULL
13
Lattice="3.898269122248979 -0.00018704747313396546 0.0007691759935814076 1.3285147973585698 6.199963387219741 -0.0007708031956943385 1.651577309648227 1.7644648825581883 12.162683967142843" Properties=species:S:1:pos:R:3:initial_magmoms:R:1:castep_labels:S:1 n_minim_iter=2 pbc="T T T"
P        2.57997881       6.24067650       0.81793268       0.00000000 NULL
P        1.13496002       2.84847466       2.80715691       0.00000000 NULL
P        2.19037200       3.57390950      11.48784524       0.00000000 NULL
P        3.50413569       6.02814796      10.58555771       0.00000000 NULL
P        0.92848460       3.16206570       0.79228323       0.00000000 NULL
P        2.67128872       1.56840227       8.02157031       0.00000000 NULL
P        4.21339374       4.41069790      11.53472752       0.00000000 NULL
P        1.32116438       1.95592678       5.17421122       0.00000000 NULL
P        2.74430465       1.82091767       1.79628286       0.00000000 NULL
P        1.85695458       3.97043743       5.55098030       0.00000000 NULL
P        2.65468035       4.22914593       0.98617456       0.00000000 NULL
P        4.14412953       5.84322841       8.68281169       0.00000000 NULL
P        2.49747130       5.34967115       7.63426254       0.00000000 NULL
13
Lattice="4.06421538627428 -0.004507206674833577 0.019214204206426604 1.3782107712677285 6.471867232982863 -0.020171677362350152 1.7773551732320205 1.7901519813993112 12.78777572119344" Properties=species:S:1:pos:R:3:initial_magmoms:R:1:castep_labels:S:1 n_minim_iter=3 pbc="T T T"
P        2.68651037       6.51573829       0.84676671       0.00000000 NULL
P        1.19301923       2.96099662       2.95464949       0.00000000 NULL
P        2.33617313       3.67121201      12.06573997       0.00000000 NULL
P        3.69167541       6.25534960      11.12094114       0.00000000 NULL
P        0.96360405       3.29869449       0.82297381       0.00000000 NULL
P        2.82016296       1.60415518       8.43866591       0.00000000 NULL
P        4.44219293       4.54959593      12.12931402       0.00000000 NULL
P        1.39949617       2.02006630       5.43793071       0.00000000 NULL
P        2.86727327       1.88531788       1.89740522       0.00000000 NULL
P        1.95815627       4.12074788       5.82787927       0.00000000 NULL
P        2.77396381       4.41187512       1.03394897       0.00000000 NULL
P        4.36249003       6.05784982       9.12162964       0.00000000 NULL
P        2.62940929       5.54932494       8.01248931       0.00000000 NULL
13
Lattice="4.091577909316571 -0.006646519142620351 0.026449747834181147 1.3841356645010836 6.484052688605051 -0.0458420774386843 1.8105289136809162 1.7377466527088479 12.945495446356489" Properties=species:S:1:pos:R:3:initial_magmoms:R:1:castep_labels:S:1 n_minim_iter=4 pbc="T T T"
P        2.70287224       6.52784411       0.83443831       0.00000000 NULL
P        1.20552085       2.95156755       2.98546906       0.00000000 NULL
P        2.37294868       3.61910047      12.20329182       0.00000000 NULL
P        3.73018066       6.22255412      11.24078692       0.00000000 NULL
P        0.96660834       3.30230200       0.82219287       0.00000000 NULL
P        2.85235648       1.56961832       8.54369505       0.00000000 NULL
P        4.48999548       4.50429975      12.27137179       0.00000000 NULL
P        1.41743380       2.00359701       5.49977338       0.00000000 NULL
P        2.88667634       1.87664339       1.92138754       0.00000000 NULL
P        1.97905803       4.10050916       5.88716244       0.00000000 NULL
P        2.79639206       4.41581690       1.03409710       0.00000000 NULL
P        4.40837791       6.02783506       9.21738140       0.00000000 NULL
P        2.65611109       5.52347839       8.09277210       0.00000000 NULL
13
Lattice="4.09863025183407 -0.011219375736290425 0.032783604524166524 1.3792672146322227 6.448952448275 -0.07784394351752744 1.8311949420991747 1.659260948694593 13.025429086598434" Properties=species:S:1:pos:R:3:initial_magmoms:R:1:castep_labels:S:1 n_minim_iter=5 pbc="T T T"
P        2.70185504       6.49172497       0.81031217       0.00000000 NULL
P        1.21014407       2.91646596       2.99551314       0.00000000 NULL
P        2.39396412       3.52678077      12.26506029       0.00000000 NULL
P        3.74412171       6.13224524      11.28741791       0.00000000 NULL
P        0.96216474       3.28115110       0.81459512       0.00000000 NULL
P        2.86760168       1.51346807       8.59676470       0.00000000 NULL
P        4.51011759       4.41309486      12.33598234       0.00000000 NULL
P        1.42604324       1.96798440       5.52647324       0.00000000 NULL
P        2.88912389       1.85059993       1.93261998       0.00000000 NULL
P        1.98645515       4.04307295       5.90768072       0.00000000 NULL
P        2.80291187       4.38494227       1.02355220       0.00000000 NULL
P        4.42731867       5.94303696       9.25267924       0.00000000 NULL
P        2.66477100       5.44864059       8.11942198       0.00000000 NULL
13
Lattice="4.099557336128788 -0.024775779317788536 0.042477257635120766 1.3580239356171397 6.369244628710306 -0.1414087953869518 1.8556775325496706 1.5009918015046135 13.094329787578763" Properties=species:S:1:pos:R:3:initial_magmoms:R:1:castep_labels:S:1 n_minim_iter=6 pbc="T T T"
P        2.68347451       6.40914929       0.75503973       0.00000000 NULL
P        1.21004140       2.84197914       2.99370713       0.00000000 NULL
P        2.41578252       3.33810726      12.30305997       0.00000000 NULL
P        3.74547043       5.94157324      11.30032831       0.00000000 NULL
P        0.94604652       3.23386730       0.79516437       0.00000000 NULL
P        2.88083186       1.39788720       8.64173535       0.00000000 NULL
P        4.52239932       4.22405749      12.37663484       0.00000000 NULL
P        1.43226448       1.89335428       5.54021391       0.00000000 NULL
P        2.88104643       1.79302684       1.94039308       0.00000000 NULL
P        1.98653977       3.92309740       5.90729485       0.00000000 NULL
P        2.80163548       4.31402780       0.99435797       0.00000000 NULL
P        4.43759950       5.76279450       9.25810541       0.00000000 NULL
P        2.66237876       5.29159198       8.11555031       0.00000000 NULL
13
Lattice="4.106532693639158 -0.05982509026567073 0.05129121597914085 1.3046613067424984 6.288187476928143 -0.24103814352497235 1.8702361652829824 1.2651933368305008 13.116129684245577" Properties=species:S:1:pos:R:3:initial_magmoms:R:1:castep_labels:S:1 n_minim_iter=7 pbc="T T T"
P        2.63490429       6.32334552       0.65906112       0.00000000 NULL
P        1.19593595       2.74449151       2.97093081       0.00000000 NULL
P        2.42235493       3.06393317      12.27976341       0.00000000 NULL
P        3.71292040       5.68147336      11.24266703       0.00000000 NULL
P        0.90777111       3.18214944       0.76379110       0.00000000 NULL
P        2.88486920       1.22200085       8.65227882       0.00000000 NULL
P        4.51339554       3.95510746      12.35171593       0.00000000 NULL
P        1.42692001       1.78686440       5.52224107       0.00000000 NULL
P        2.86213427       1.70405258       1.93837434       0.00000000 NULL
P        1.96761784       3.76491762       5.86684845       0.00000000 NULL
P        2.78998924       4.22530660       0.94085154       0.00000000 NULL
P        4.42626732       5.51251199       9.20372142       0.00000000 NULL
P        2.63129458       5.08250386       8.05331574       0.00000000 NULL
13
Lattice="4.111078713729111 -0.10812715021068096 0.0404645163535439 1.2293942015570463 6.212890677649324 -0.30929882734088715 1.8165050719354587 1.1013642558505077 13.025650844685467" Properties=species:S:1:pos:R:3:initial_magmoms:R:1:castep_labels:S:1 n_minim_iter=8 pbc="T T T"
P        2.55861670       6.24222623       0.57841082       0.00000000 NULL
P        1.15604360       2.66653843       2.93227735       0.00000000 NULL
P        2.35700669       2.86036784      12.16089837       0.00000000 NULL
P        3.60497182       5.48068613      11.10732417       0.00000000 NULL
P        0.85408163       3.13810550       0.74163906       0.00000000 NULL
P        2.84018697       1.08683083       8.58375077       0.00000000 NULL
P        4.42924780       3.75332000      12.21869669       0.00000000 NULL
P        1.38598575       1.70414830       5.46096770       0.00000000 NULL
P        2.82761271       1.61835155       1.91569615       0.00000000 NULL
P        1.90856896       3.64821357       5.78921350       0.00000000 NULL
P        2.75724188       4.14038089       0.89173536       0.00000000 NULL
P        4.34817500       5.31101902       9.08307284       0.00000000 NULL
P        2.54373082       4.92261103       7.93942274       0.00000000 NULL
13
Lattice="4.124344461841299 -0.12259525977936199 0.038537709396045866 1.2109069093467135 6.210697367780972 -0.32621367208380353 1.8095520259851332 1.0641392166178647 13.029254600814706" Properties=species:S:1:pos:R:3:initial_magmoms:R:1:castep_labels:S:1 n_minim_iter=9 pbc="T T T"
P        2.54350923       6.23789138       0.55986883       0.00000000 NULL
P        1.14866556       2.65416191       2.92932298       0.00000000 NULL
P        2.34777269       2.81749377      12.15593888       0.00000000 NULL
P        3.58704432       5.44506168      11.09703115       0.00000000 NULL
P        0.84107114       3.13595708       0.73815200       0.00000000 NULL
P        2.83755418       1.05527304       8.58429060       0.00000000 NULL
P        4.42086410       3.71287472      12.20950202       0.00000000 NULL
P        1.37915451       1.68647452       5.45694056       0.00000000 NULL
P        2.82678530       1.59982409       1.91492212       0.00000000 NULL
P        1.89885020       3.63084511       5.78180197       0.00000000 NULL
P        2.75567559       4.12956609       0.88259929       0.00000000 NULL
P        4.34026816       5.27416425       9.07214862       0.00000000 NULL
P        2.52779386       4.89648562       7.92724584       0.00000000 NULL
13
Lattice="4.128437271244075 -0.13446315300425213 0.03600832093329469 1.193428044832403 6.1954985810092245 -0.33906593447262956 1.7980170072538708 1.032426167848283 13.010813886213832" Properties=species:S:1:pos:R:3:initial_magmoms:R:1:castep_labels:S:1 n_minim_iter=10 pbc="T T T"
P        2.52641434       6.22045985       0.54396215       0.00000000 NULL
P        1.14009352       2.63848673       2.92196810       0.00000000 NULL
P        2.33360051       2.77771272      12.13239159       0.00000000 NULL
P        3.56387330       5.40470215      11.07054474       0.00000000 NULL
P        0.82885128       3.12749375       0.73409163       0.00000000 NULL
P        2.82891429       1.02756380       8.57043312       0.00000000 NULL
P        4.40379570       3.67260438      12.18166850       0.00000000 NULL
P        1.37004142       1.66877057       5.44477975       0.00000000 NULL
P        2.82088331       1.58157445       1.91060154       0.00000000 NULL
P        1.88626197       3.60922542       5.76636960       0.00000000 NULL
P        2.74906403       4.11167372       0.87346386       0.00000000 NULL
P        4.32403425       5.23337011       9.04815720       0.00000000 NULL
P        2.50871388       4.86524847       7.90458296       0.00000000 NULL
13
Lattice="4.146059921079956 -0.17419129652347687 0.028092906970391966 1.1362538472995292 6.1509632027038466 -0.38146626715535087 1.7627833782727347 0.928926011651642 12.957922955945019" Properties=species:S:1:pos:R:3:initial_magmoms:R:1:castep_labels:S:1 n_minim_iter=11 pbc="T T T"
P        2.47160116       6.16826678       0.49176349       0.00000000 NULL
P        1.11325947       2.58897758       2.89978648       0.00000000 NULL
P        2.29027281       2.64907382      12.06237719       0.00000000 NULL
P        3.49120684       5.27639715      10.99028409       0.00000000 NULL
P        0.78866674       3.10274102       0.72134916       0.00000000 NULL
P        2.80377786       0.93678745       8.53024101       0.00000000 NULL
P        4.35241913       3.54321882      12.09688012       0.00000000 NULL
P        1.34139189       1.61122295       5.40814378       0.00000000 NULL
P        2.80420295       1.52265086       1.89815590       0.00000000 NULL
P        1.84696746       3.54202943       5.71897422       0.00000000 NULL
P        2.72987529       4.05598208       0.84441515       0.00000000 NULL
P        4.27513472       5.10328527       8.97490660       0.00000000 NULL
P        2.44848258       4.76702202       7.83472048       0.00000000 NULL
13
Lattice="4.168895920060258 -0.21445383015328823 0.021051412908156656 1.0800068742997306 6.107586420812518 -0.4202124022010811 1.7322388824050783 0.8321639452988738 12.909699546909687" Properties=species:S:1:pos:R:3:initial_magmoms:R:1:castep_labels:S:1 n_minim_iter=12 pbc="T T T"
P        2.41902801       6.11598846       0.44288329       0.00000000 NULL
P        1.08927768       2.54106874       2.88021227       0.00000000 NULL
P        2.25255137       2.52761827      11.99890637       0.00000000 NULL
P        3.42478118       5.15401305      10.91738425       0.00000000 NULL
P        0.74905729       3.07979876       0.71049662       0.00000000 NULL
P        2.78359216       0.84950698       8.49398876       0.00000000 NULL
P        4.30830745       3.42054863      12.01691291       0.00000000 NULL
P        1.31487833       1.55464698       5.37477074       0.00000000 NULL
P        2.79140783       1.46580335       1.88825374       0.00000000 NULL
P        1.81144878       3.48065048       5.67524527       0.00000000 NULL
P        2.71343886       4.00119316       0.81899627       0.00000000 NULL
P        4.23266638       4.97854542       8.90817762       0.00000000 NULL
P        2.39291965       4.67469005       7.77048424       0.00000000 NULL
13
Lattice="4.193584920367096 -0.25701057624150075 0.014534050142435194 1.0207429594848885 6.060800866317691 -0.453881464829352 1.7030734563707066 0.7432892545626406 12.859077887229018" Properties=species:S:1:pos:R:3:initial_magmoms:R:1:castep_labels:S:1 n_minim_iter=13 pbc="T T T"
P        2.36353195       6.05859710       0.39814315       0.00000000 NULL
P        1.06576810       2.49315570       2.86206665       0.00000000 NULL
P        2.21609374       2.41295675      11.93595796       0.00000000 NULL
P        3.35797717       5.03496118      10.84650114       0.00000000 NULL
P        0.70797838       3.05632632       0.70170170       0.00000000 NULL
P        2.76458913       0.76554864       8.45680266       0.00000000 NULL
P        4.26470484       3.30258668      11.93577852       0.00000000 NULL
P        1.28827118       1.49907364       5.34192666       0.00000000 NULL
P        2.77917987       1.40950400       1.87990791       0.00000000 NULL
P        1.77553940       3.42248070       5.63256476       0.00000000 NULL
P        2.69505157       3.94338186       0.79727944       0.00000000 NULL
P        4.18945957       4.85565028       8.84380283       0.00000000 NULL
P        2.33689676       4.58549542       7.70860852       0.00000000 NULL
13
Lattice="4.228333166897747 -0.3004335502839889 0.0101020230445191 0.9635303665323128 6.019834444615482 -0.4824745269701565 1.6842752255808353 0.6643509326254863 12.821738886874288" Properties=species:S:1:pos:R:3:initial_magmoms:R:1:castep_labels:S:1 n_minim_iter=14 pbc="T T T"
P        2.31284638       6.00615204       0.35892784       0.00000000 NULL
P        1.04749951       2.44930732       2.84924947       0.00000000 NULL
P        2.19136291       2.30953815      11.88837346       0.00000000 NULL
P        3.30452967       4.92834453      10.79152566       0.00000000 NULL
P        0.66874143       3.03691841       0.69609767       0.00000000 NULL
P        2.75609574       0.68754720       8.42941842       0.00000000 NULL
P        4.23676296       3.19614229      11.86926035       0.00000000 NULL
P        1.26720860       1.44757769       5.31636191       0.00000000 NULL
P        2.77467471       1.35717141       1.87645494       0.00000000 NULL
P        1.74673405       3.37309862       5.59820531       0.00000000 NULL
P        2.68260764       3.88942536       0.78128318       0.00000000 NULL
P        4.16000729       4.74354448       8.79381581       0.00000000 NULL
P        2.29057573       4.50710589       7.65926102       0.00000000 NULL
13
Lattice="4.2549153296271065 -0.3446268998396524 0.003024396253623079 0.9023090218636689 5.955389421952698 -0.5111502850478298 1.6534217583666813 0.5800781583524227 12.753550961494495" Properties=species:S:1:pos:R:3:initial_magmoms:R:1:castep_labels:S:1 n_minim_iter=15 pbc="T T T"
P        2.25436391       5.92836385       0.31602076       0.00000000 NULL
P        1.02579838       2.39443978       2.82871468       0.00000000 NULL
P        2.15436277       2.19497053      11.81336919       0.00000000 NULL
P        3.23584646       4.79907722      10.70886464       0.00000000 NULL
P        0.62693321       3.00555947       0.68771241       0.00000000 NULL
P        2.73623915       0.60377307       8.38069040       0.00000000 NULL
P        4.19087911       3.07370816      11.77141737       0.00000000 NULL
P        1.23967122       1.38878030       5.27790313       0.00000000 NULL
P        2.76273629       1.29985807       1.86699493       0.00000000 NULL
P        1.70934028       3.30961590       5.54890708       0.00000000 NULL
P        2.66137145       3.81869963       0.76134927       0.00000000 NULL
P        4.11362516       4.61010229       8.72025668       0.00000000 NULL
P        2.23359772       4.40966379       7.59104209       0.00000000 NULL
13
Lattice="4.270385592194733 -0.35595428067709595 0.002046258988474649 0.8895680155597688 5.950931029355204 -0.5180829918519545 1.651783339281194 0.5621735764811348 12.75807907229373" Properties=species:S:1:pos:R:3:initial_magmoms:R:1:castep_labels:S:1 n_minim_iter=16 pbc="T T T"
P        2.24482798       5.92071615       0.30657707       0.00000000 NULL
P        1.02391744       2.38557900       2.82916025       0.00000000 NULL
P        2.15246693       2.17211739      11.81509824       0.00000000 NULL
P        3.22808789       4.77808810      10.70726046       0.00000000 NULL
P        0.61799282       3.00410340       0.68764536       0.00000000 NULL
P        2.73846886       0.58536010       8.38291614       0.00000000 NULL
P        4.19094124       3.05137935      11.76694657       0.00000000 NULL
P        1.23643838       1.37702055       5.27754358       0.00000000 NULL
P        2.76607065       1.28884895       1.86901756       0.00000000 NULL
P        1.70532380       3.30207919       5.54638026       0.00000000 NULL
P        2.66237862       3.80873753       0.75915511       0.00000000 NULL
P        4.11311744       4.58722213       8.71788181       0.00000000 NULL
P        2.22616719       4.39548021       7.58778131       0.00000000 NULL
13
Lattice="4.281813060805593 -0.3682332587314676 -0.0003125775996349438 0.8739355689562333 5.937161301520066 -0.5259354812222955 1.643697089212699 0.5404249234020968 12.747508525913728" Properties=species:S:1:pos:R:3:initial_magmoms:R:1:castep_labels:S:1 n_minim_iter=17 pbc="T T T"
P        2.23075671       5.90317511       0.29468123       0.00000000 NULL
P        1.01940804       2.37196782       2.82560573       0.00000000 NULL
P        2.14361778       2.14283696      11.80251294       0.00000000 NULL
P        3.21156461       4.74659599      10.69144828       0.00000000 NULL
P        0.60708157       2.99776734       0.68612388       0.00000000 NULL
P        2.73468502       0.56329865       8.37464919       0.00000000 NULL
P        4.18135455       3.02089656      11.74685526       0.00000000 NULL
P        1.22954532       1.36176651       5.27046356       0.00000000 NULL
P        2.76529902       1.27466975       1.86786969       0.00000000 NULL
P        1.69643564       3.28795652       5.53626198       0.00000000 NULL
P        2.65901528       3.79180191       0.75447093       0.00000000 NULL
P        4.10362078       4.55429303       8.70330258       0.00000000 NULL
P        2.21230214       4.37246720       7.57431106       0.00000000 NULL
13
Lattice="4.301086923431107 -0.3884142055275411 -0.004744672135927681 0.8484109211243305 5.913625757753885 -0.5387751384419172 1.6288835806245636 0.5049235101589392 12.728912516721177" Properties=species:S:1:pos:R:3:initial_magmoms:R:1:castep_labels:S:1 n_minim_iter=18 pbc="T T T"
P        2.20769604       5.87340438       0.27477601       0.00000000 NULL
P        1.01201503       2.34913751       2.81948976       0.00000000 NULL
P        2.12789996       2.09463215      11.78086031       0.00000000 NULL
P        3.18338337       4.69433213      10.66422760       0.00000000 NULL
P        0.58910800       2.98696488       0.68360831       0.00000000 NULL
P        2.72760163       0.52710948       8.36002703       0.00000000 NULL
P        4.16444590       2.97067457      11.71221746       0.00000000 NULL
P        1.21762683       1.33656776       5.25829809       0.00000000 NULL
P        2.76401787       1.25142994       1.86562842       0.00000000 NULL
P        1.68130513       3.26451708       5.51894844       0.00000000 NULL
P        2.65356297       3.76330115       0.74650620       0.00000000 NULL
P        4.08722878       4.49967545       8.67822450       0.00000000 NULL
P        2.18881252       4.33421331       7.55148406       0.00000000 NULL
13
Lattice="4.344457923313878 -0.42996561659807697 -0.0159289036047503 0.7971140088394272 5.864960530024199 -0.564566891907051 1.5935222525040942 0.43440917325315853 12.690115792982086" Properties=species:S:1:pos:R:3:initial_magmoms:R:1:castep_labels:S:1 n_minim_iter=19 pbc="T T T"
P        2.16161502       5.81200094       0.23307293       0.00000000 NULL
P        0.99752578       2.30193933       2.80706576       0.00000000 NULL
P        2.09234844       1.99737547      11.73649737       0.00000000 NULL
P        3.12317355       4.58866697      10.60736746       0.00000000 NULL
P        0.55220592       2.96504927       0.67899301       0.00000000 NULL
P        2.71101547       0.45416832       8.32875195       0.00000000 NULL
P        4.12737279       2.86988853      11.63874577       0.00000000 NULL
P        1.19146478       1.28546149       5.23303749       0.00000000 NULL
P        2.76253666       1.20476913       1.86055587       0.00000000 NULL
P        1.64917016       3.21792969       5.48275925       0.00000000 NULL
P        2.64405086       3.70436396       0.72981851       0.00000000 NULL
P        4.05269351       4.38885111       8.62561260       0.00000000 NULL
P        2.13898449       4.25705195       7.50468696       0.00000000 NULL
13
Lattice="4.426955819972607 -0.4947283611078048 -0.04396829134982672 0.7222404533482202 5.790366236982809 -0.601721491930159 1.5116276695014013 0.3379246725357718 12.620690359502252" Properties=species:S:1:pos:R:3:initial_magmoms:R:1:castep_labels:S:1 n_minim_iter=20 pbc="T T T"
P        2.09495235       5.71853636       0.16448422       0.00000000 NULL
P        0.97635631       2.22887427       2.78685406       0.00000000 NULL
P        2.01743093       1.85670961      11.66131593       0.00000000 NULL
P        3.01450252       4.43601399      10.50901148       0.00000000 NULL
P        0.49461442       2.93361951       0.67418884       0.00000000 NULL
P        2.67226793       0.34879080       8.26984641       0.00000000 NULL
P        4.05385109       2.72728381      11.50798637       0.00000000 NULL
P        1.14091112       1.21046511       5.18949045       0.00000000 NULL
P        2.76338683       1.13751672       1.84890363       0.00000000 NULL
P        1.59217031       3.15487551       5.42099403       0.00000000 NULL
P        2.63553016       3.61337108       0.70148798       0.00000000 NULL
P        3.99062424       4.22650393       8.53375803       0.00000000 NULL
P        2.05082043       4.14644894       7.42827605       0.00000000 NULL
13
Lattice="4.578931662901877 -0.5963835493903543 -0.11495018106548277 0.6123784664415574 5.687097438747655 -0.6490871454517427 1.3084782080737063 0.22992648846414684 12.425343931170769" Properties=species:S:1:pos:R:3:initial_magmoms:R:1:castep_labels:S:1 n_minim_iter=21 pbc="T T T"
P        1.99240196       5.58962242       0.04750508       0.00000000 NULL
P        0.94493395       2.11931635       2.73845574       0.00000000 NULL
P        1.84346203       1.67550494      11.47000946       0.00000000 NULL
P        2.79494555       4.24248009      10.27461681       0.00000000 NULL
P        0.40326627       2.89681989       0.66777634       0.00000000 NULL
P        2.56931375       0.21315412       8.10914306       0.00000000 NULL
P        3.88113037       2.55287114      11.20719038       0.00000000 NULL
P        1.03273240       1.11221239       5.08351468       0.00000000 NULL
P        2.75993843       1.05232157       1.81146606       0.00000000 NULL
P        1.47754389       3.08830168       5.28248666       0.00000000 NULL
P        2.62316852       3.48023742       0.64686108       0.00000000 NULL
P        3.85349432       4.01342377       8.32135419       0.00000000 NULL
P        1.87404615       4.00902903       7.26498625       0.00000000 NULL
13
Lattice="4.72636834406039 -0.6469275202034411 -0.09246823188636343 0.5822534392639043 5.751760533251625 -0.7252106554842088 1.418070133435765 0.06755858314701675 12.388273083859545" Properties=species:S:1:pos:R:3:initial_magmoms:R:1:castep_labels:S:1 n_minim_iter=22 pbc="T T T"
P        1.97652087       5.64156326      -0.06908973       0.00000000 NULL
P        1.03473313       2.04686474       2.73322695       0.00000000 NULL
P        1.98842615       1.49189368      11.43721087       0.00000000 NULL
P        2.91187749       4.13912122      10.16744417       0.00000000 NULL
P        0.39164982       2.94028943       0.64997457       0.00000000 NULL
P        2.67897992       0.07511176       8.08151765       0.00000000 NULL
P        4.02915127       2.42768068      11.09662219       0.00000000 NULL
P        1.07603418       1.02850618       5.04225053       0.00000000 NULL
P        2.81773235       1.04302595       1.84790507       0.00000000 NULL
P        1.55208129       3.09426699       5.19923071       0.00000000 NULL
P        2.67336898       3.47160135       0.63447250       0.00000000 NULL
P        3.98843566       3.91750273       8.24820591       0.00000000 NULL
P        1.93388380       3.95618265       7.21232407       0.00000000 NULL
13
Lattice="4.665972137658947 -0.6514117711554092 -0.13624362878845947 0.5545345552524216 5.568084756487759 -0.7220801997046751 1.2539562372605317 0.04916523954587765 12.104012867254035" Properties=species:S:1:pos:R:3:initial_magmoms:R:1:castep_labels:S:1 n_minim_iter=23 pbc="T T T"
P        1.92298024       5.45403966      -0.09670577       0.00000000 NULL
P        0.98289108       1.96951632       2.66512060       0.00000000 NULL
P        1.82538388       1.42227114      11.17026877       0.00000000 NULL
P        2.73505922       3.98465703       9.91151206       0.00000000 NULL
P        0.36743714       2.84579601       0.63164112       0.00000000 NULL
P        2.54745884       0.04863951       7.87906878       0.00000000 NULL
P        3.82854539       2.32543397      10.80767440       0.00000000 NULL
P        0.99572840       0.98983640       4.91678762       0.00000000 NULL
P        2.74692588       0.99769685       1.78022541       0.00000000 NULL
P        1.45879251       2.98643912       5.06376580       0.00000000 NULL
P        2.60849100       3.34682573       0.59182459       0.00000000 NULL
P        3.81480209       3.77068762       8.02038510       0.00000000 NULL
P        1.80556757       3.81655260       7.03426546       0.00000000 NULL
13
Lattice="4.713446963990909 -0.6615819101520366 -0.13663899646331518 0.5545434291764488 5.6430957462845655 -0.7247873769469387 1.2682001416057327 0.062178271209673376 12.271553060732817" Properties=species:S:1:pos:R:3:initial_magmoms:R:1:castep_labels:S:1 n_minim_iter=24 pbc="T T T"
P        1.93510613       5.52787003      -0.09230533       0.00000000 NULL
P        0.99258100       1.99626731       2.70756173       0.00000000 NULL
P        1.84452949       1.45070902      11.32688761       0.00000000 NULL
P        2.75862784       4.04979808      10.05332684       0.00000000 NULL
P        0.36737842       2.88726487       0.64573511       0.00000000 NULL
P        2.57337688       0.05748953       7.98795412       0.00000000 NULL
P        3.86746892       2.36690074      10.95866308       0.00000000 NULL
P        1.00466318       1.00689159       4.98558789       0.00000000 NULL
P        2.77467691       1.01364290       1.80962280       0.00000000 NULL
P        1.47290438       3.03490104       5.13526662       0.00000000 NULL
P        2.63119378       3.39171641       0.60805548       0.00000000 NULL
P        3.85228854       3.82906470       8.13627413       0.00000000 NULL
P        1.81942254       3.87554250       7.13952486       0.00000000 NULL
13
Lattice="4.717999881452047 -0.6649793671364793 -0.1421309109430947 0.5506922798421445 5.63455041951847 -0.7278115950716599 1.2514582995430372 0.05637648031074784 12.257424754119333" Properties=species:S:1:pos:R:3:initial_magmoms:R:1:castep_labels:S:1 n_minim_iter=25 pbc="T T T"
P        1.93083387       5.51805772      -0.09922937       0.00000000 NULL
P        0.98940570       1.98880329       2.70457928       0.00000000 NULL
P        1.82952245       1.44092159      11.31320698       0.00000000 NULL
P        2.74264826       4.03763119      10.03639632       0.00000000 NULL
P        0.36473136       2.88330376       0.64433970       0.00000000 NULL
P        2.56345864       0.05149049       7.97603803       0.00000000 NULL
P        3.85176558       2.35634040      10.93938381       0.00000000 NULL
P        0.99652437       1.00272242       4.97744596       0.00000000 NULL
P        2.77209458       1.01054309       1.80524488       0.00000000 NULL
P        1.46557229       3.02882091       5.12459478       0.00000000 NULL
P        2.62809805       3.38338569       0.60374818       0.00000000 NULL
P        3.83971951       3.81737283       8.11991330       0.00000000 NULL
P        1.80640679       3.86552230       7.12973303       0.00000000 NULL
13
Lattice="4.728025394822394 -0.6700006621411412 -0.1481522886215862 0.5461241320658045 5.630650180838753 -0.7322522359461633 1.2346446360143664 0.04894506973782972 12.250214863651511" Properties=species:S:1:pos:R:3:initial_magmoms:R:1:castep_labels:S:1 n_minim_iter=26 pbc="T T T"
P        1.92695436       5.51240742      -0.10803296       0.00000000 NULL
P        0.98725135       1.98133801       2.70363413       0.00000000 NULL
P        1.81526487       1.42993373      11.30588988       0.00000000 NULL
P        2.72755998       4.02715032      10.02375163       0.00000000 NULL
P        0.36196575       2.88200242       0.64330506       0.00000000 NULL
P        2.55527478       0.04396582       7.96814730       0.00000000 NULL
P        3.83826018       2.34575389      10.92479501       0.00000000 NULL
P        0.98831635       0.99850803       4.97140085       0.00000000 NULL
P        2.77180714       1.00816061       1.80214955       0.00000000 NULL
P        1.45930778       3.02513635       5.11529088       0.00000000 NULL
P        2.62659695       3.37688806       0.59965188       0.00000000 NULL
P        3.82955627       3.80719254       8.10674146       0.00000000 NULL
P        1.79320367       3.85748235       7.12408906       0.00000000 NULL
13
Lattice="4.7923704240530824 -0.7001759511383125 -0.17800299864961297 0.5200685936985587 5.615080063580276 -0.7593760929120825 1.1550935132712186 0.0014345997456576423 12.199208036201023" Properties=species:S:1:pos:R:3:initial_magmoms:R:1:castep_labels:S:1 n_minim_iter=27 pbc="T T T"
P        1.90725518       5.48607828      -0.16024313       0.00000000 NULL
P        0.98096395       1.93769978       2.69702747       0.00000000 NULL
P        1.75062215       1.36329591      11.25512243       0.00000000 NULL
P        2.65836009       3.96735110       9.94178585       0.00000000 NULL
P        0.34877289       2.87783258       0.63602793       0.00000000 NULL
P        2.52178483      -0.00243112       7.91781329       0.00000000 NULL
P        3.77903079       2.28328784      10.83335914       0.00000000 NULL
P        0.94832471       0.97348866       4.93194236       0.00000000 NULL
P        2.77565257       0.99608872       1.78588359       0.00000000 NULL
P        1.43377009       3.00636869       5.05553333       0.00000000 NULL
P        2.62165433       3.34236204       0.57755527       0.00000000 NULL
P        3.78683254       3.74995373       8.02522368       0.00000000 NULL
P        1.72791164       3.81269176       7.08671783       0.00000000 NULL
13
Lattice="4.902698152894844 -0.7498651442353775 -0.1808941594703534 0.47865353723687654 5.609497845567296 -0.7910544107325218 1.1702374479361226 -0.07654486582372641 12.032867062153679" Properties=species:S:1:pos:R:3:initial_magmoms:R:1:castep_labels:S:1 n_minim_iter=28 pbc="T T T"
P        1.88701498       5.45971841      -0.22466979       0.00000000 NULL
P        1.00746737       1.86772426       2.67867073       0.00000000 NULL
P        1.78017530       1.26251998      11.09948429       0.00000000 NULL
P        2.68119903       3.88051148       9.75347528       0.00000000 NULL
P        0.35094126       2.87919591       0.62152496       0.00000000 NULL
P        2.56488941      -0.07567330       7.79770283       0.00000000 NULL
P        3.80958997       2.19066759      10.64156373       0.00000000 NULL
P        0.94190186       0.93776096       4.83588599       0.00000000 NULL
P        2.80833433       0.98843414       1.77323718       0.00000000 NULL
P        1.46738402       2.98763624       4.92711985       0.00000000 NULL
P        2.62483402       3.29513066       0.56733930       0.00000000 NULL
P        3.81959264       3.67394901       7.86561389       0.00000000 NULL
P        1.70892555       3.75107806       6.99470552       0.00000000 NULL
