6
Lattice="5.205049999999999 6.616913591945424e-16 -3.474110230117109e-16 1.0523313389875988 5.097562579849762 1.2858320456309495e-15 1.0523313389875983 0.8572795175200681 5.024959311708416" Properties=species:S:1:pos:R:3:initial_magmoms:R:1:castep_labels:S:1 n_minim_iter=1 pbc="T T T"
P        2.32854568       3.46917142       3.95317871       0.00000000 NULL
P        3.86830483       4.16243540       0.89176596       0.00000000 NULL
P        4.85855340       1.37465476       2.75493746       0.00000000 NULL
P        2.55366291       1.97141301       0.41316120       0.00000000 NULL
P        2.44698912       0.76083938       2.00293119       0.00000000 NULL
P        1.23984779       2.35155767       1.87385155       0.00000000 NULL
6
Lattice="5.208982940323296 -0.001983079553395818 -0.0016734102944718926 1.0511843537006793 5.101815231828622 -0.0016734102944716317 1.051184353700678 0.8563451283624492 5.029432819031431" Properties=species:S:1:pos:R:3:initial_magmoms:R:1:castep_labels:S:1 n_minim_iter=2 pbc="T T T"
P        2.32760171       3.47048371       3.95539335       0.00000000 NULL
P        3.86939918       4.16441840       0.89022067       0.00000000 NULL
P        4.86071670       1.37324429       2.75585862       0.00000000 NULL
P        2.55501691       1.97225643       0.41181251       0.00000000 NULL
P        2.44808888       0.75970423       2.00429707       0.00000000 NULL
P        1.23895842       2.35312382       1.87490978       0.00000000 NULL
6
Lattice="5.376263593156104 -0.08779005998505067 -0.0740811380359126 1.0009693165432967 5.282989470467154 -0.0740811380359127 1.0009693165432947 0.815437553693098 5.220203765764946" Properties=species:S:1:pos:R:3:initial_magmoms:R:1:castep_labels:S:1 n_minim_iter=3 pbc="T T T"
P        2.28544024       3.52549317       4.04900664       0.00000000 NULL
P        3.91474866       4.24788397       0.82281145       0.00000000 NULL
P        4.95162719       1.31142641       2.79434124       0.00000000 NULL
P        2.61231383       2.00769703       0.35284162       0.00000000 NULL
P        2.49438161       0.70980513       2.06246581       0.00000000 NULL
P        1.19944901       2.41978516       1.91976300       0.00000000 NULL
6
Lattice="5.40328907008579 -0.14009821186563554 -0.11822107165173458 0.9552052371735739 5.320032259183463 -0.11822107165173401 0.9552052371735724 0.7781559424473755 5.264142170360619" Properties=species:S:1:pos:R:3:initial_magmoms:R:1:castep_labels:S:1 n_minim_iter=4 pbc="T T T"
P        2.22568457       3.50936499       4.04874836       0.00000000 NULL
P        3.88687243       4.23833589       0.76838100       0.00000000 NULL
P        4.93664040       1.25350458       2.77848620       0.00000000 NULL
P        2.60868340       2.00195417       0.31313163       0.00000000 NULL
P        2.48802336       0.67025804       2.06678372       0.00000000 NULL
P        1.15943311       2.42433899       1.92078014       0.00000000 NULL
6
Lattice="5.382340068900724 -0.20092233825508785 -0.16954716145891832 0.8914017999150552 5.311812989405063 -0.1695471614589189 0.8914017999150528 0.7261786061440334 5.264671699769116" Properties=species:S:1:pos:R:3:initial_magmoms:R:1:castep_labels:S:1 n_minim_iter=5 pbc="T T T"
P        2.13241128       3.45631905       4.00745431       0.00000000 NULL
P        3.81606439       4.18407133       0.69585131       0.00000000 NULL
P        4.86918082       1.17219075       2.73314038       0.00000000 NULL
P        2.57792539       1.97644283       0.26384241       0.00000000 NULL
P        2.45682035       0.61747235       2.05046339       0.00000000 NULL
P        1.10142900       2.40490667       1.90392133       0.00000000 NULL
6
Lattice="5.302638079933481 -0.32642633192819526 -0.27545298588755074 0.7523757843072106 5.259130673041397 -0.2754529858875506 0.7523757843072088 0.6129213542050267 5.230550372295317" Properties=species:S:1:pos:R:3:initial_magmoms:R:1:castep_labels:S:1 n_minim_iter=6 pbc="T T T"
P        1.92122340       3.32607794       3.89000839       0.00000000 NULL
P        3.64581591       4.03794349       0.53767823       0.00000000 NULL
P        4.69165061       0.99319876       2.62450566       0.00000000 NULL
P        2.49689811       1.91214697       0.16006581       0.00000000 NULL
P        2.37747054       0.50401460       2.00250603       0.00000000 NULL
P        0.97427167       2.34842097       1.85799379       0.00000000 NULL
6
Lattice="5.252124773530403 -0.38699148142846984 -0.3265605395338248 0.6828488104838177 5.221905260099118 -0.3265605395338242 0.6828488104838163 0.5562813508470623 5.202450133363241" Properties=species:S:1:pos:R:3:initial_magmoms:R:1:castep_labels:S:1 n_minim_iter=7 pbc="T T T"
P        1.81375447       3.25790565       3.82298900       0.00000000 NULL
P        3.55732388       3.95649624       0.45878502       0.00000000 NULL
P        4.59399441       0.90362370       2.56857528       0.00000000 NULL
P        2.44993255       1.87517683       0.11171667       0.00000000 NULL
P        2.33176859       0.44987580       1.97266451       0.00000000 NULL
P        0.91201107       2.31331805       1.82968130       0.00000000 NULL
6
Lattice="5.2074563405014285 -0.4523411426320994 -0.3817054759087466 0.6098178156812055 5.191371329352588 -0.3817054759087467 0.6098178156812035 0.4967868041497964 5.181625055982476" Properties=species:S:1:pos:R:3:initial_magmoms:R:1:castep_labels:S:1 n_minim_iter=8 pbc="T T T"
P        1.70230856       3.19219876       3.75841538       0.00000000 NULL
P        3.47044229       3.87672110       0.37514978       0.00000000 NULL
P        4.49830139       0.80958253       2.51466386       0.00000000 NULL
P        2.40336729       1.83786864       0.06075278       0.00000000 NULL
P        2.28581650       0.39323691       1.94371655       0.00000000 NULL
P        0.84725144       2.27913977       1.80147529       0.00000000 NULL
6
Lattice="5.161791425332662 -0.5216087971575798 -0.4401565884515543 0.5327482726360184 5.160653614990386 -0.4401565884515546 0.5327482726360164 0.43400226259957203 5.161174826754959" Properties=species:S:1:pos:R:3:initial_magmoms:R:1:castep_labels:S:1 n_minim_iter=9 pbc="T T T"
P        1.58530085       3.12481642       3.69215867       0.00000000 NULL
P        3.38079540       3.79442777       0.28676213       0.00000000 NULL
P        4.39958310       0.71048681       2.45938392       0.00000000 NULL
P        2.35383520       1.79749203       0.00726123       0.00000000 NULL
P        2.23625953       0.33372204       1.91294103       0.00000000 NULL
P        0.77894641       2.24266401       1.77066967       0.00000000 NULL
6
Lattice="5.15102304489134 -0.5383197024259465 -0.45425798990978045 0.5142053595842733 5.1534861365095805 -0.4542579899097806 0.5142053595842714 0.4188963173849118 5.156480927519722" Properties=species:S:1:pos:R:3:initial_magmoms:R:1:castep_labels:S:1 n_minim_iter=10 pbc="T T T"
P        1.55724192       3.10903397       3.67674043       0.00000000 NULL
P        3.35966605       3.77514439       0.26541234       0.00000000 NULL
P        4.37642610       0.68661671       2.44641920       0.00000000 NULL
P        2.34178024       1.78736386      -0.00555066       0.00000000 NULL
P        2.22390331       0.31945153       1.90547629       0.00000000 NULL
P        0.76247247       2.23375571       1.76284038       0.00000000 NULL
6
Lattice="5.0500600544012695 -0.7036458124442252 -0.5937674785613456 0.33188113390499824 5.088032910210742 -0.5937674785613459 0.33188113390499635 0.2703662694506546 5.115421858882023" Properties=species:S:1:pos:R:3:initial_magmoms:R:1:castep_labels:S:1 n_minim_iter=11 pbc="T T T"
P        1.28136341       2.95902970       3.52877808       0.00000000 NULL
P        3.15698370       3.58895208       0.05385768       0.00000000 NULL
P        4.15310146       0.45102375       2.32343489       0.00000000 NULL
P        2.22515403       1.68823175      -0.13257204       0.00000000 NULL
P        2.10323943       0.17840132       1.83400359       0.00000000 NULL
P        0.59993981       2.14822326       1.68648194       0.00000000 NULL
6
Lattice="5.13123078460925 -0.7372560500100701 -0.6221292845443821 0.3153756659250278 5.17432256798322 -0.622129284544383 0.3153756659250254 0.25692012458916563 5.205252244974227" Properties=species:S:1:pos:R:3:initial_magmoms:R:1:castep_labels:S:1 n_minim_iter=12 pbc="T T T"
P        1.26359936       3.01385194       3.58240161       0.00000000 NULL
P        3.20708238       3.63702210       0.01676432       0.00000000 NULL
P        4.21030751       0.42107561       2.36845820       0.00000000 NULL
P        2.25132857       1.69657346      -0.15524528       0.00000000 NULL
P        2.11670071       0.16007838       1.86142310       0.00000000 NULL
P        0.58471679       2.17809232       1.69851789       0.00000000 NULL
6
Lattice="5.066592801222608 -0.7493275589365541 -0.6323157580384984 0.2904852522320393 5.113459956058937 -0.6323157580384996 0.2904852522320367 0.23664320129414299 5.146969587569301" Properties=species:S:1:pos:R:3:initial_magmoms:R:1:castep_labels:S:1 n_minim_iter=13 pbc="T T T"
P        1.21723210       2.96818150       3.53060575       0.00000000 NULL
P        3.15298075       3.57988002      -0.01018603       0.00000000 NULL
P        4.14340744       0.38754137       2.33214896       0.00000000 NULL
P        2.21172459       1.66766479      -0.17044382       0.00000000 NULL
P        2.08038208       0.13955639       1.83150677       0.00000000 NULL
P        0.55727586       2.14331811       1.67257696       0.00000000 NULL
6
Lattice="5.062734034337024 -0.7570693640349734 -0.6388486358180655 0.2821231736172816 5.111246075009779 -0.6388486358180658 0.28212317361727973 0.22983105149423186 5.145885901043522" Properties=species:S:1:pos:R:3:initial_magmoms:R:1:castep_labels:S:1 n_minim_iter=14 pbc="T T T"
P        1.20256140       2.96781656       3.52719232       0.00000000 NULL
P        3.14965730       3.57411133      -0.02370235       0.00000000 NULL
P        4.13708597       0.37386632       2.33236328       0.00000000 NULL
P        2.20526375       1.66098398      -0.17838898       0.00000000 NULL
P        2.07253301       0.13088743       1.82793709       0.00000000 NULL
P        0.54719904       2.13880127       1.66732748       0.00000000 NULL
6
Lattice="5.024929939697536 -0.7981961635527984 -0.6735532494448712 0.23420262188728247 5.082537471212604 -0.6735532494448722 0.23420262188728005 0.19079267456447932 5.123422613980859" Properties=species:S:1:pos:R:3:initial_magmoms:R:1:castep_labels:S:1 n_minim_iter=15 pbc="T T T"
P        1.11585783       2.95673466       3.49727840       0.00000000 NULL
P        3.12127495       3.53072006      -0.10016671       0.00000000 NULL
P        4.08885254       0.29529173       2.32646997       0.00000000 NULL
P        2.16121256       1.61904983      -0.22300013       0.00000000 NULL
P        2.02255878       0.08108216       1.80126978       0.00000000 NULL
P        0.48831873       2.10597636       1.63349304       0.00000000 NULL
