12
Lattice="3.0586788508230573 0.0 0.0 0.0 10.276653996371289 0.0 0.0 0.0 14.919974476468493" Properties=species:S:1:pos:R:3:initial_magmoms:R:1:castep_labels:S:1:forces:R:3 n_minim_iter=1 energy=-61.572426504541 stress="0.0008357297954143934 0.0 -0.0 0.0 0.000562626074955457 -0.0 -0.0 -0.0 0.0012352356750613821" free_energy=-61.572426504541 pbc="T T T"
P        1.06261687       1.32435684       6.24022061       0.00000000 NULL      -0.16493400       0.14222700      -0.03681100
P        1.99606198       8.95229715      13.70020785       0.00000000 NULL       0.16493400      -0.14222700      -0.03681100
P        1.99606198       6.46268384       6.24022061       0.00000000 NULL       0.16493400       0.14222700      -0.03681100
P        1.06261687       3.81397015      13.70020785       0.00000000 NULL      -0.16493400      -0.14222700      -0.03681100
P        2.53684446       2.12316632       4.64279670       0.00000000 NULL       0.13912400      -0.03809400       0.11038200
P        0.52183439       8.15348768      12.10278394       0.00000000 NULL      -0.13912400       0.03809400       0.11038200
P        0.52183439       7.26149331       4.64279670       0.00000000 NULL      -0.13912400      -0.03809400       0.11038200
P        2.53684446       3.01516068      12.10278394       0.00000000 NULL       0.13912400       0.03809400       0.11038200
P        1.01654166       1.67275549      13.27201726       0.00000000 NULL      -0.00341900       0.10413300      -0.07357100
P        2.04213719       8.60389851       5.81203002       0.00000000 NULL       0.00341900      -0.10413300      -0.07357100
P        2.04213719       6.81108249      13.27201726       0.00000000 NULL       0.00341900       0.10413300      -0.07357100
P        1.01654166       3.46557151       5.81203002       0.00000000 NULL      -0.00341900      -0.10413300      -0.07357100
12
Lattice="3.0532497572549753 0.0 0.0 0.0 10.264370409975458 0.0 0.0 0.0 14.880848866451082" Properties=species:S:1:pos:R:3:initial_magmoms:R:1:castep_labels:S:1:forces:R:3 n_minim_iter=2 energy=-61.574607716804 stress="-0.0009561259338360075 0.0 -0.0 0.0 -0.0008699266457888948 0.0 -0.0 0.0 0.0001043826204510806" free_energy=-61.574607716804 pbc="T T T"
P        1.05998448       1.32341776       6.22369006       0.00000000 NULL      -0.16703700       0.07259000       0.02590800
P        1.99326528       8.94095265      13.66411449       0.00000000 NULL       0.16703700      -0.07259000       0.02590800
P        1.99326528       6.45560296       6.22369006       0.00000000 NULL       0.16703700       0.07259000       0.02590800
P        1.05998448       3.80876745      13.66411449       0.00000000 NULL      -0.16703700      -0.07259000       0.02590800
P        2.53297111       2.12045605       4.63112062       0.00000000 NULL       0.14038400      -0.05228800       0.01994200
P        0.52027865       8.14391436      12.07154505       0.00000000 NULL      -0.14038400       0.05228800       0.01994200
P        0.52027865       7.25264126       4.63112062       0.00000000 NULL      -0.14038400      -0.05228800       0.01994200
P        2.53297111       3.01172915      12.07154505       0.00000000 NULL       0.14038400       0.05228800       0.01994200
P        1.01472185       1.67122750      13.23688059       0.00000000 NULL      -0.00338600       0.02030200      -0.04585000
P        2.03852791       8.59314291       5.79645616       0.00000000 NULL       0.00338600      -0.02030200      -0.04585000
P        2.03852791       6.80341271      13.23688059       0.00000000 NULL       0.00338600       0.02030200      -0.04585000
P        1.01472185       3.46095770       5.79645616       0.00000000 NULL      -0.00338600      -0.02030200      -0.04585000
12
Lattice="3.069829908965432 0.0 0.0 0.0 10.331415470878401 0.0 0.0 0.0 14.714957874297939" Properties=species:S:1:pos:R:3:initial_magmoms:R:1:castep_labels:S:1:forces:R:3 n_minim_iter=3 energy=-61.582847494258 stress="0.00016923257774369583 0.0 -0.0 0.0 0.0007507258285424319 0.0 -0.0 0.0 -0.0011546512936027522" free_energy=-61.582847494258 pbc="T T T"
P        1.05837126       1.33648186       6.15438084       0.00000000 NULL      -0.13693100       0.11104000       0.08566300
P        2.01145865       8.99493361      13.51185977       0.00000000 NULL       0.13693100      -0.11104000       0.08566300
P        2.01145865       6.50218959       6.15438084       0.00000000 NULL       0.13693100       0.11104000       0.08566200
P        1.05837126       3.82922588      13.51185977       0.00000000 NULL      -0.13693100      -0.11104000       0.08566300
P        2.55292808       2.13222727       4.58188407       0.00000000 NULL       0.10553800      -0.03811900      -0.08567300
P        0.51690183       8.19918820      11.93936301       0.00000000 NULL      -0.10553800       0.03811900      -0.08567300
P        0.51690183       7.29793501       4.58188407       0.00000000 NULL      -0.10553800      -0.03811900      -0.08567300
P        2.55292808       3.03348046      11.93936301       0.00000000 NULL       0.10553800       0.03811900      -0.08567300
P        1.02008144       1.68448421      13.08685334       0.00000000 NULL       0.01114000       0.07292100       0.00001100
P        2.04974847       8.64693126       5.72937441       0.00000000 NULL      -0.01114000      -0.07292200       0.00001100
P        2.04974847       6.85019194      13.08685334       0.00000000 NULL      -0.01114000       0.07292100       0.00001100
P        1.02008144       3.48122353       5.72937441       0.00000000 NULL       0.01114000      -0.07292100       0.00001100
12
Lattice="3.0817804730583753 0.0 0.0 0.0 10.310845891652605 0.0 0.0 0.0 14.74739012866504" Properties=species:S:1:pos:R:3:initial_magmoms:R:1:castep_labels:S:1:forces:R:3 n_minim_iter=4 energy=-61.591595767375 stress="0.0018538036059572952 -0.0 0.0 -0.0 -0.001862766292175965 -0.0 0.0 -0.0 -0.0006752530476604009" free_energy=-61.591595767375 pbc="T T T"
P        1.05113028       1.34133509       6.17018795       0.00000000 NULL      -0.07965900      -0.03218700       0.08218700
P        2.03065019       8.96951080      13.54388301       0.00000000 NULL       0.07965900       0.03218700       0.08218700
P        2.03065019       6.49675804       6.17018795       0.00000000 NULL       0.07965900      -0.03218700       0.08218700
P        1.05113028       3.81408785      13.54388301       0.00000000 NULL      -0.07965900       0.03218700       0.08218700
P        2.57217521       2.12480189       4.59233368       0.00000000 NULL       0.03828500      -0.04346800      -0.03810000
P        0.50960526       8.18604400      11.96602874       0.00000000 NULL      -0.03828500       0.04346800      -0.03810000
P        0.50960526       7.28022484       4.59233368       0.00000000 NULL      -0.03828500      -0.04346800      -0.03810000
P        2.57217521       3.03062106      11.96602874       0.00000000 NULL       0.03828500       0.04346800      -0.03810000
P        1.02418328       1.68546441      13.11310358       0.00000000 NULL       0.02187700      -0.07565500      -0.04408700
P        2.05759719       8.62538148       5.73940852       0.00000000 NULL      -0.02187700       0.07565500      -0.04408700
P        2.05759719       6.84088736      13.11310358       0.00000000 NULL      -0.02187700      -0.07565500      -0.04408700
P        1.02418328       3.46995853       5.73940852       0.00000000 NULL       0.02187700       0.07565500      -0.04408700
12
Lattice="3.0579709360025484 0.0 0.0 0.0 10.407268830596596 0.0 0.0 0.0 14.854343114158185" Properties=species:S:1:pos:R:3:initial_magmoms:R:1:castep_labels:S:1:forces:R:3 n_minim_iter=5 energy=-61.604107121249 stress="-0.0005566468859724812 -0.0 -0.0 -0.0 -0.0002755206418313345 -0.0 -0.0 -0.0 -0.00032133850825795027" free_energy=-61.604107121249 pbc="T T T"
P        1.02562580       1.36437136       6.21929916       0.00000000 NULL       0.00535700       0.02459700       0.05340200
P        2.03234513       9.04289747      13.64647071       0.00000000 NULL      -0.00535700      -0.02459700       0.05340300
P        2.03234513       6.56800578       6.21929916       0.00000000 NULL      -0.00535700       0.02459700       0.05340200
P        1.02562580       3.83926305      13.64647071       0.00000000 NULL       0.00535700      -0.02459700       0.05340300
P        2.56615218       2.13942420       4.62569466       0.00000000 NULL      -0.05794900      -0.04013500      -0.01245800
P        0.49181875       8.26784463      12.05286622       0.00000000 NULL       0.05794900       0.04013500      -0.01245800
P        0.49181875       7.34305862       4.62569466       0.00000000 NULL       0.05794900      -0.04013500      -0.01245800
P        2.56615218       3.06421021      12.05286622       0.00000000 NULL      -0.05794900       0.04013500      -0.01245800
P        1.01677620       1.70647086      13.20378540       0.00000000 NULL       0.04707000      -0.01553900      -0.04094500
P        2.04119473       8.70079797       5.77661384       0.00000000 NULL      -0.04707000       0.01553900      -0.04094500
P        2.04119473       6.91010528      13.20378540       0.00000000 NULL      -0.04707000      -0.01553900      -0.04094500
P        1.01677620       3.49716355       5.77661384       0.00000000 NULL       0.04707000       0.01553900      -0.04094500
12
Lattice="3.0556018261955815 0.0 0.0 0.0 10.513133196972163 0.0 0.0 0.0 14.95414699927428" Properties=species:S:1:pos:R:3:initial_magmoms:R:1:castep_labels:S:1:forces:R:3 n_minim_iter=6 energy=-61.621598337625 stress="-0.00041135646617448723 0.0 0.0 0.0 -0.00033858169740033574 -0.0 0.0 -0.0 2.9913427553906087e-05" free_energy=-61.621598337625 pbc="T T T"
P        1.01066244       1.40876113       6.28370538       0.00000000 NULL       0.02960900       0.01172600       0.04484300
P        2.04493939       9.10437206      13.76077888       0.00000000 NULL      -0.02960900      -0.01172600       0.04484300
P        2.04493939       6.66532773       6.28370538       0.00000000 NULL      -0.02960900       0.01172600       0.04484300
P        1.01066244       3.84780546      13.76077888       0.00000000 NULL       0.02960900      -0.01172600       0.04484300
P        2.54827435       2.13662806       4.66393034       0.00000000 NULL       0.02872800      -0.03385000       0.02311400
P        0.50732748       8.37650514      12.14100384       0.00000000 NULL      -0.02872800       0.03385000       0.02311400
P        0.50732748       7.39319466       4.66393034       0.00000000 NULL      -0.02872800      -0.03385000       0.02311400
P        2.54827435       3.11993854      12.14100384       0.00000000 NULL       0.02872800       0.03385000       0.02311400
P        1.04022238       1.72978131      13.26272305       0.00000000 NULL      -0.05091600      -0.02212500      -0.06795700
P        2.01537945       8.78335189       5.78564955       0.00000000 NULL       0.05091600       0.02212400      -0.06795700
P        2.01537945       6.98634790      13.26272305       0.00000000 NULL       0.05091600      -0.02212400      -0.06795700
P        1.04022238       3.52678529       5.78564955       0.00000000 NULL      -0.05091600       0.02212400      -0.06795700
12
Lattice="3.0540583100341117 0.0 0.0 0.0 10.72200587856785 0.0 0.0 0.0 15.299843552566324" Properties=species:S:1:pos:R:3:initial_magmoms:R:1:castep_labels:S:1:forces:R:3 n_minim_iter=7 energy=-61.665384806923 stress="0.002206932878753349 0.0 -0.0 0.0 0.003495228549528403 0.0 -0.0 0.0 0.0035095598009478456" free_energy=-61.665384806923 pbc="T T T"
P        1.00711326       1.52347783       6.51766082       0.00000000 NULL       0.01064400       0.23137600      -0.22022600
P        2.04694505       9.19852805      14.16758260       0.00000000 NULL      -0.01064400      -0.23137600      -0.22022600
P        2.04694505       6.88448077       6.51766082       0.00000000 NULL      -0.01064400       0.23137600      -0.22022600
P        1.00711326       3.83752511      14.16758260       0.00000000 NULL       0.01064400      -0.23137600      -0.22022600
P        2.53285382       2.09892405       4.80291015       0.00000000 NULL       0.10527400      -0.03008100       0.28237800
P        0.52120449       8.62308183      12.45283193       0.00000000 NULL      -0.10527400       0.03008100       0.28237800
P        0.52120449       7.45992699       4.80291015       0.00000000 NULL      -0.10527400      -0.03008100       0.28237800
P        2.53285382       3.26207889      12.45283193       0.00000000 NULL       0.10527400       0.03008100       0.28237800
P        1.05152464       1.77072058      13.44946071       0.00000000 NULL      -0.11631200       0.20129500      -0.06215200
P        2.00253367       8.95128530       5.79953894       0.00000000 NULL       0.11631200      -0.20129500      -0.06215200
P        2.00253367       7.13172352      13.44946071       0.00000000 NULL       0.11631200       0.20129500      -0.06215200
P        1.05152464       3.59028236       5.79953894       0.00000000 NULL      -0.11631200      -0.20129500      -0.06215200
12
Lattice="3.052728924294114 0.0 0.0 0.0 10.780926919861423 0.0 0.0 0.0 15.312254791116565" Properties=species:S:1:pos:R:3:initial_magmoms:R:1:castep_labels:S:1:forces:R:3 n_minim_iter=8 energy=-61.673486366845 stress="0.003507959189381166 0.0 -0.0 0.0 0.004858244280396202 0.0 -0.0 0.0 0.0042369468506831985" free_energy=-61.673486366845 pbc="T T T"
P        1.00953565       1.56785267       6.54256926       0.00000000 NULL      -0.00713100       0.18884300      -0.22023400
P        2.04319328       9.21307425      14.19869666       0.00000000 NULL       0.00713100      -0.18884300      -0.22023400
P        2.04319328       6.95831613       6.54256926       0.00000000 NULL       0.00713100       0.18884300      -0.22023400
P        1.00953565       3.82261079      14.19869666       0.00000000 NULL      -0.00713100      -0.18884300      -0.22023400
P        2.53006459       2.06906152       4.81329810       0.00000000 NULL       0.09093700       0.13268800       0.37876200
P        0.52266434       8.71186540      12.46942550       0.00000000 NULL      -0.09093700      -0.13268800       0.37876200
P        0.52266434       7.45952498       4.81329810       0.00000000 NULL      -0.09093700       0.13268800       0.37876200
P        2.53006459       3.32140194      12.46942550       0.00000000 NULL       0.09093700      -0.13268800       0.37876200
P        1.04615253       1.77505681      13.43425763       0.00000000 NULL      -0.08666300       0.32153100      -0.15852700
P        2.00657639       9.00587011       5.77813024       0.00000000 NULL       0.08666300      -0.32153100      -0.15852700
P        2.00657639       7.16552027      13.43425763       0.00000000 NULL       0.08666300       0.32153100      -0.15852700
P        1.04615253       3.61540665       5.77813024       0.00000000 NULL      -0.08666300      -0.32153100      -0.15852700
12
Lattice="3.066524087197201 0.0 0.0 0.0 10.75608944915173 0.0 0.0 0.0 15.218826250967487" Properties=species:S:1:pos:R:3:initial_magmoms:R:1:castep_labels:S:1:forces:R:3 n_minim_iter=9 energy=-61.722152836031 stress="0.0038463086953597655 -0.0 0.0 -0.0 0.005205898884876344 0.0 0.0 0.0 0.003384771573235746" free_energy=-61.722152836031 pbc="T T T"
P        1.01292402       1.60503412       6.55537705       0.00000000 NULL      -0.01025700       0.25206700      -0.22854200
P        2.05360007       9.15105533      14.16479018       0.00000000 NULL       0.01025700      -0.25206700      -0.22854200
P        2.05360007       6.98307884       6.55537705       0.00000000 NULL       0.01025700       0.25206700      -0.22854200
P        1.01292402       3.77301061      14.16479018       0.00000000 NULL      -0.01025700      -0.25206700      -0.22854200
P        2.54589893       2.02224932       4.81017098       0.00000000 NULL       0.04423800       0.07263800       0.25889600
P        0.52062515       8.73384013      12.41958411       0.00000000 NULL      -0.04423800      -0.07263800       0.25889600
P        0.52062515       7.40029404       4.81017098       0.00000000 NULL      -0.04423800       0.07263800       0.25889600
P        2.54589893       3.35579541      12.41958411       0.00000000 NULL       0.04423800      -0.07263800       0.25889600
P        1.03070403       1.76971427      13.27331890       0.00000000 NULL      -0.03718400       0.32470500      -0.03035500
P        2.03582006       8.98637518       5.66390578       0.00000000 NULL       0.03718400      -0.32470500      -0.03035500
P        2.03582006       7.14775899      13.27331890       0.00000000 NULL       0.03718400       0.32470500      -0.03035500
P        1.03070403       3.60833046       5.66390578       0.00000000 NULL      -0.03718400      -0.32470500      -0.03035500
12
Lattice="3.068773356437869 0.0 0.0 0.0 10.736040137900893 0.0 0.0 0.0 14.97455606018119" Properties=species:S:1:pos:R:3:initial_magmoms:R:1:castep_labels:S:1:forces:R:3 n_minim_iter=10 energy=-61.743823465176 stress="0.001168500597005611 -0.0 0.0 -0.0 0.0007673320803629105 -0.0 0.0 -0.0 -8.302274879590251e-05" free_energy=-61.743823465176 pbc="T T T"
P        1.01961106       1.60999394       6.45595605       0.00000000 NULL      -0.02796500       0.03066300       0.02931100
P        2.04916229       9.12604619      13.94323408       0.00000000 NULL       0.02796500      -0.03066300       0.02931100
P        2.04916229       6.97801401       6.45595605       0.00000000 NULL       0.02796500       0.03066300       0.02931100
P        1.01961106       3.75802613      13.94323408       0.00000000 NULL      -0.02796500      -0.03066300       0.02931100
P        2.55269366       2.01660773       4.73121891       0.00000000 NULL       0.00262600      -0.00033700       0.01881000
P        0.51607969       8.71943240      12.21849694       0.00000000 NULL      -0.00262600       0.00033700       0.01881000
P        0.51607969       7.38462780       4.73121891       0.00000000 NULL      -0.00262600      -0.00033700       0.01881000
P        2.55269366       3.35141234      12.21849694       0.00000000 NULL       0.00262600       0.00033700       0.01881000
P        1.01224479       1.77249454      13.05622437       0.00000000 NULL       0.02446700       0.03032600      -0.04812100
P        2.05652856       8.96354560       5.56894634       0.00000000 NULL      -0.02446700      -0.03032600      -0.04812100
P        2.05652856       7.14051461      13.05622437       0.00000000 NULL      -0.02446700       0.03032600      -0.04812100
P        1.01224479       3.59552553       5.56894634       0.00000000 NULL       0.02446700      -0.03032600      -0.04812100
12
Lattice="3.0633392312136487 0.0 0.0 0.0 10.721880586679172 0.0 0.0 0.0 14.947172091894382" Properties=species:S:1:pos:R:3:initial_magmoms:R:1:castep_labels:S:1:forces:R:3 n_minim_iter=11 energy=-61.766677477957 stress="0.0011115293131413757 -0.0 0.0 -0.0 0.00229255848914332 0.0 0.0 0.0 0.0009151086866570661" free_energy=-61.766677477957 pbc="T T T"
P        1.00691514       1.66363366       6.50053611       0.00000000 NULL      -0.00069200       0.09971800      -0.06569000
P        2.05642410       9.05824693      13.97412216       0.00000000 NULL       0.00069200      -0.09971800      -0.06569000
P        2.05642410       7.02457395       6.50053611       0.00000000 NULL       0.00069200       0.09971800      -0.06569000
P        1.00691514       3.69730664      13.97412216       0.00000000 NULL      -0.00069200      -0.09971800      -0.06569000
P        2.54915350       1.95758665       4.74609746       0.00000000 NULL      -0.03738600       0.01769400       0.06168500
P        0.51418573       8.76429394      12.21968351       0.00000000 NULL       0.03738600      -0.01769400       0.06168500
P        0.51418573       7.31852694       4.74609746       0.00000000 NULL       0.03738600       0.01769400       0.06168500
P        2.54915350       3.40335365      12.21968351       0.00000000 NULL      -0.03738600      -0.01769400       0.06168500
P        1.00444762       1.76955716      12.95243009       0.00000000 NULL       0.03746200       0.11741300       0.00400500
P        2.05889161       8.95232343       5.47884405       0.00000000 NULL      -0.03746200      -0.11741300       0.00400500
P        2.05889161       7.13049745      12.95243009       0.00000000 NULL      -0.03746200       0.11741300       0.00400500
P        1.00444762       3.59138313       5.47884405       0.00000000 NULL       0.03746200      -0.11741200       0.00400400
12
Lattice="3.0624346993844584 0.0 0.0 0.0 10.532084454506965 0.0 0.0 0.0 14.658201284789486" Properties=species:S:1:pos:R:3:initial_magmoms:R:1:castep_labels:S:1:forces:R:3 n_minim_iter=12 energy=-61.777612187871 stress="0.0011363140853912288 0.0 -0.0 0.0 0.0031802115352641924 0.0 -0.0 0.0 0.001339536275746178" free_energy=-61.777612187871 pbc="T T T"
P        0.98942740       1.67885194       6.43560233       0.00000000 NULL       0.04271300       0.12769900      -0.10322000
P        2.07300729       8.85323251      13.76470297       0.00000000 NULL      -0.04271300      -0.12769900      -0.10322000
P        2.07300729       6.94489417       6.43560233       0.00000000 NULL      -0.04271300       0.12769900      -0.10322000
P        0.98942740       3.58719029      13.76470297       0.00000000 NULL       0.04271300      -0.12769900      -0.10322000
P        2.54346119       1.86127007       4.66930167       0.00000000 NULL      -0.05138000       0.06230600       0.06501400
P        0.51897351       8.67081438      11.99840231       0.00000000 NULL       0.05138000      -0.06230600       0.06501400
P        0.51897351       7.12731230       4.66930167       0.00000000 NULL       0.05138000       0.06230600       0.06501400
P        2.54346119       3.40477216      11.99840231       0.00000000 NULL      -0.05138000      -0.06230600       0.06501400
P        1.00863384       1.72123726      12.62632210       0.00000000 NULL       0.00429100       0.19000500       0.03820700
P        2.05380085       8.81084719       5.29722146       0.00000000 NULL      -0.00429100      -0.19000500       0.03820700
P        2.05380085       6.98727949      12.62632210       0.00000000 NULL      -0.00429100       0.19000500       0.03820700
P        1.00863384       3.54480496       5.29722146       0.00000000 NULL       0.00429100      -0.19000500       0.03820700
12
Lattice="3.060739181098999 0.0 0.0 0.0 10.459157342417695 0.0 0.0 0.0 14.375514850138433" Properties=species:S:1:pos:R:3:initial_magmoms:R:1:castep_labels:S:1:forces:R:3 n_minim_iter=13 energy=-61.786441696286 stress="-0.00024424175930531575 0.0 0.0 0.0 0.0004249893530688048 0.0 0.0 0.0 4.043896032626269e-05" free_energy=-61.786441696286 pbc="T T T"
P        0.99015644       1.68176538       6.33814906       0.00000000 NULL       0.01033500       0.00380100       0.00065600
P        2.07058275       8.77739196      13.52590649       0.00000000 NULL      -0.01033500      -0.00380100       0.00065600
P        2.07058275       6.91134405       6.33814906       0.00000000 NULL      -0.01033500       0.00380100       0.00065600
P        0.99015644       3.54781329      13.52590649       0.00000000 NULL       0.01033500      -0.00380100       0.00065600
P        2.53058620       1.83548883       4.57182023       0.00000000 NULL      -0.01107400       0.00656200       0.00896700
P        0.53015298       8.62366852      11.75957765       0.00000000 NULL       0.01107400      -0.00656200       0.00896700
P        0.53015298       7.06506750       4.57182023       0.00000000 NULL       0.01107400       0.00656200       0.00896700
P        2.53058620       3.39408984      11.75957765       0.00000000 NULL      -0.01107400      -0.00656200       0.00896700
P        1.00352094       1.71096445      12.36359572       0.00000000 NULL      -0.00524900       0.01036300      -0.00962300
P        2.05721824       8.74819289       5.17583830       0.00000000 NULL       0.00524900      -0.01036300      -0.00962300
P        2.05721824       6.94054312      12.36359572       0.00000000 NULL       0.00524900       0.01036300      -0.00962300
P        1.00352094       3.51861422       5.17583830       0.00000000 NULL      -0.00524900      -0.01036200      -0.00962300
12
Lattice="3.071731929846531 0.0 0.0 0.0 9.925432713117063 0.0 0.0 0.0 13.69091852583856" Properties=species:S:1:pos:R:3:initial_magmoms:R:1:castep_labels:S:1:forces:R:3 n_minim_iter=14 energy=-61.803677056086 stress="0.0024546944668165974 -0.0 0.0 -0.0 0.0009579973291470213 -0.0 0.0 -0.0 0.0018988174029924917" free_energy=-61.803677056086 pbc="T T T"
P        0.98006037       1.64710357       6.14045936       0.00000000 NULL      -0.05072700       0.06498000      -0.12519400
P        2.09167156       8.27832914      12.98591862       0.00000000 NULL       0.05072700      -0.06498000      -0.12519400
P        2.09167156       6.60981993       6.14045936       0.00000000 NULL       0.05072700       0.06498000      -0.12519400
P        0.98006037       3.31561279      12.98591862       0.00000000 NULL      -0.05072700      -0.06498000      -0.12519400
P        2.50209090       1.65380755       4.36699768       0.00000000 NULL       0.01251300      -0.01593700       0.07157200
P        0.56964103       8.27162517      11.21245694       0.00000000 NULL      -0.01251300       0.01593700       0.07157200
P        0.56964103       6.61652390       4.36699768       0.00000000 NULL      -0.01251300      -0.01593700       0.07157200
P        2.50209090       3.30890881      11.21245694       0.00000000 NULL       0.01251300       0.01593700       0.07157200
P        0.97245765       1.58679500      11.65776406       0.00000000 NULL      -0.04181300       0.04904300       0.05362100
P        2.09927428       8.33863771       4.81230479       0.00000000 NULL       0.04181300      -0.04904300       0.05362100
P        2.09927428       6.54951136      11.65776406       0.00000000 NULL       0.04181300       0.04904300       0.05362100
P        0.97245765       3.37592135       4.81230479       0.00000000 NULL      -0.04181300      -0.04904300       0.05362200
12
Lattice="3.0724973009707433 0.0 0.0 0.0 9.866622407281836 0.0 0.0 0.0 13.603095495328201" Properties=species:S:1:pos:R:3:initial_magmoms:R:1:castep_labels:S:1:forces:R:3 n_minim_iter=15 energy=-61.804530469198 stress="0.00262898240454291 0.0 -0.0 0.0 0.0006311167935933898 -0.0 -0.0 -0.0 0.0019804302396057233" free_energy=-61.804530469198 pbc="T T T"
P        0.97708107       1.64126450       6.11155149       0.00000000 NULL      -0.05305700       0.06680800      -0.12903700
P        2.09541623       8.22535791      12.91309923       0.00000000 NULL       0.05305700      -0.06680800      -0.12903700
P        2.09541623       6.57457570       6.11155149       0.00000000 NULL       0.05305700       0.06680800      -0.12903700
P        0.97708107       3.29204670      12.91309923       0.00000000 NULL      -0.05305700      -0.06680800      -0.12903700
P        2.49830606       1.63533272       4.33900461       0.00000000 NULL       0.01349900      -0.00691800       0.07219700
P        0.57419124       8.23128969      11.14055236       0.00000000 NULL      -0.01349900       0.00691800       0.07219700
P        0.57419124       6.56864393       4.33900461       0.00000000 NULL      -0.01349900      -0.00691800       0.07219700
P        2.49830606       3.29797848      11.14055236       0.00000000 NULL       0.01349900       0.00691800       0.07219700
P        0.96823926       1.57263758      11.57248181       0.00000000 NULL      -0.04432000       0.05989000       0.05684100
P        2.10425804       8.29398483       4.77093406       0.00000000 NULL       0.04432000      -0.05989000       0.05684100
P        2.10425804       6.50594878      11.57248181       0.00000000 NULL       0.04432000       0.05989000       0.05684100
P        0.96823926       3.36067363       4.77093406       0.00000000 NULL      -0.04432000      -0.05989000       0.05684100
12
Lattice="3.070216397657846 0.0 0.0 0.0 9.833514094670686 0.0 0.0 0.0 13.343259975757906" Properties=species:S:1:pos:R:3:initial_magmoms:R:1:castep_labels:S:1:forces:R:3 n_minim_iter=16 energy=-61.814056157384 stress="0.0014101400099549052 0.0 0.0 0.0 -0.001256086303514147 0.0 0.0 0.0 -0.00011942513401329147" free_energy=-61.814056157384 pbc="T T T"
P        0.95661455       1.63711774       6.00751777       0.00000000 NULL      -0.04492500      -0.02627900       0.01115900
P        2.11360185       8.19639635      12.67914776       0.00000000 NULL       0.04492500       0.02627900       0.01115900
P        2.11360185       6.55387479       6.00751777       0.00000000 NULL       0.04492500      -0.02627900       0.01115900
P        0.95661455       3.27963931      12.67914776       0.00000000 NULL      -0.04492500       0.02627900       0.01115900
P        2.48035378       1.62507924       4.24486665       0.00000000 NULL      -0.00129200      -0.00890600       0.00646900
P        0.58986262       8.20843485      10.91649664       0.00000000 NULL       0.00129200       0.00890600       0.00646900
P        0.58986262       6.54183629       4.24486665       0.00000000 NULL       0.00129200      -0.00890600       0.00646900
P        2.48035378       3.29167780      10.91649664       0.00000000 NULL      -0.00129200       0.00890600       0.00646900
P        0.94714215       1.56395475      11.34998821       0.00000000 NULL      -0.03543300      -0.03518400      -0.01762700
P        2.12307425       8.26955934       4.67835822       0.00000000 NULL       0.03543300       0.03518400      -0.01762800
P        2.12307425       6.48071180      11.34998821       0.00000000 NULL       0.03543300      -0.03518400      -0.01762800
P        0.94714215       3.35280229       4.67835822       0.00000000 NULL      -0.03543300       0.03518400      -0.01762800
12
Lattice="3.0567006830744137 0.0 0.0 0.0 9.836326977860093 0.0 0.0 0.0 13.007357044504054" Properties=species:S:1:pos:R:3:initial_magmoms:R:1:castep_labels:S:1:forces:R:3 n_minim_iter=17 energy=-61.82809977192 stress="-2.659245066250375e-06 0.0 -0.0 0.0 -0.0011489217169406549 -0.0 -0.0 -0.0 -0.0004890453955490834" free_energy=-61.82809977192 pbc="T T T"
P        0.89738468       1.67072714       5.89588362       0.00000000 NULL      -0.05925900      -0.08691600       0.04166200
P        2.15931600       8.16559984      12.39956214       0.00000000 NULL       0.05925900       0.08691600       0.04166200
P        2.15931600       6.58889062       5.89588362       0.00000000 NULL       0.05925900      -0.08691600       0.04166200
P        0.89738468       3.24743635      12.39956214       0.00000000 NULL      -0.05925900       0.08691600       0.04166200
P        2.41104394       1.59730172       4.13291108       0.00000000 NULL      -0.00481600       0.06427100       0.02353400
P        0.64565674       8.23902526      10.63658960       0.00000000 NULL       0.00481600      -0.06427100       0.02353400
P        0.64565674       6.51546521       4.13291108       0.00000000 NULL       0.00481600       0.06427100       0.02353400
P        2.41104394       3.32086177      10.63658960       0.00000000 NULL      -0.00481600      -0.06427100       0.02353400
P        0.87368078       1.56930095      11.02976154       0.00000000 NULL       0.00341900      -0.02264600      -0.06519600
P        2.18301991       8.26702603       4.52608302       0.00000000 NULL      -0.00341900       0.02264600      -0.06519600
P        2.18301991       6.48746444      11.02976154       0.00000000 NULL      -0.00341900      -0.02264600      -0.06519600
P        0.87368078       3.34886254       4.52608302       0.00000000 NULL       0.00341900       0.02264600      -0.06519600
12
Lattice="3.0446616809213327 0.0 0.0 0.0 9.852210132347217 0.0 0.0 0.0 13.124514720990554" Properties=species:S:1:pos:R:3:initial_magmoms:R:1:castep_labels:S:1:forces:R:3 n_minim_iter=18 energy=-61.83944344306 stress="-0.0038485720318106966 -0.0 0.0 -0.0 -0.0020570422560416955 -0.0 0.0 -0.0 -0.0017476629381691791" free_energy=-61.83944344306 pbc="T T T"
P        0.81966468       1.66271060       5.93540391       0.00000000 NULL      -0.00822000      -0.05229700       0.10287600
P        2.22499700       8.18949953      12.49766127       0.00000000 NULL       0.00822000       0.05229700       0.10287600
P        2.22499700       6.58881567       5.93540391       0.00000000 NULL       0.00822000      -0.05229700       0.10287600
P        0.81966468       3.26339446      12.49766127       0.00000000 NULL      -0.00822000       0.05229700       0.10287600
P        2.34414249       1.61160742       4.17491781       0.00000000 NULL      -0.05449500      -0.04466800      -0.08016500
P        0.70051919       8.24060271      10.73717517       0.00000000 NULL       0.05449500       0.04466800      -0.08016500
P        0.70051919       6.53771249       4.17491781       0.00000000 NULL       0.05449500      -0.04466800      -0.08016500
P        2.34414249       3.31449765      10.73717517       0.00000000 NULL      -0.05449500       0.04466800      -0.08016500
P        0.80409582       1.57284637      11.13790956       0.00000000 NULL       0.03342000      -0.09696500      -0.02271100
P        2.24056586       8.27936376       4.57565220       0.00000000 NULL      -0.03342000       0.09696500      -0.02271100
P        2.24056586       6.49895144      11.13790956       0.00000000 NULL      -0.03342000      -0.09696500      -0.02271100
P        0.80409582       3.35325869       4.57565220       0.00000000 NULL       0.03342000       0.09696500      -0.02271100
12
Lattice="3.0531160247222267 0.0 0.0 0.0 9.911591907015623 0.0 0.0 0.0 13.18052661805538" Properties=species:S:1:pos:R:3:initial_magmoms:R:1:castep_labels:S:1:forces:R:3 n_minim_iter=19 energy=-61.846492209698 stress="-0.0015132913136597917 -0.0 -0.0 -0.0 -0.00017845901308223127 -0.0 -0.0 -0.0 -0.0009568542054345824" free_energy=-61.846492209698 pbc="T T T"
P        0.78265423       1.67867680       5.95755511       0.00000000 NULL       0.00614800      -0.03625200       0.05755700
P        2.27046179       8.23291511      12.54781841       0.00000000 NULL      -0.00614800       0.03625200       0.05755700
P        2.27046179       6.63447275       5.95755511       0.00000000 NULL      -0.00614800      -0.03625200       0.05755700
P        0.78265423       3.27711916      12.54781841       0.00000000 NULL       0.00614800       0.03625200       0.05755700
P        2.31320514       1.62097304       4.19812856       0.00000000 NULL      -0.03056100      -0.00471700      -0.04272700
P        0.73991088       8.29061886      10.78839187       0.00000000 NULL       0.03056100       0.00471700      -0.04272700
P        0.73991088       6.57676900       4.19812856       0.00000000 NULL       0.03056100      -0.00471700      -0.04272700
P        2.31320514       3.33482291      10.78839187       0.00000000 NULL      -0.03056100       0.00471700      -0.04272700
P        0.77863663       1.58792273      11.18322929       0.00000000 NULL       0.01359100      -0.04096900      -0.01483000
P        2.27447939       8.32366918       4.59296598       0.00000000 NULL      -0.01359100       0.04096900      -0.01483000
P        2.27447939       6.54371868      11.18322929       0.00000000 NULL      -0.01359100      -0.04096900      -0.01483000
P        0.77863663       3.36787322       4.59296598       0.00000000 NULL       0.01359100       0.04096900      -0.01483000
12
Lattice="3.061724111591723 0.0 0.0 0.0 9.86551099598413 0.0 0.0 0.0 13.286083147273041" Properties=species:S:1:pos:R:3:initial_magmoms:R:1:castep_labels:S:1:forces:R:3 n_minim_iter=20 energy=-61.848846574626 stress="-9.105125958769855e-05 -0.0 -0.0 -0.0 -8.277840294207295e-05 0.0 -0.0 0.0 -0.00018940356434759076" free_energy=-61.848846574626 pbc="T T T"
P        0.76538362       1.66215872       5.99657372       0.00000000 NULL      -0.00173200       0.00845300       0.00642100
P        2.29634049       8.20335228      12.63961530       0.00000000 NULL       0.00173200      -0.00845300       0.00642100
P        2.29634049       6.59491422       5.99657372       0.00000000 NULL       0.00173200       0.00845300       0.00642100
P        0.76538362       3.27059678      12.63961530       0.00000000 NULL      -0.00173200      -0.00845300       0.00642100
P        2.29563980       1.61680718       4.23664563       0.00000000 NULL       0.00205100      -0.00802800      -0.02582600
P        0.76608431       8.24870382      10.87968720       0.00000000 NULL      -0.00205100       0.00802800      -0.02582600
P        0.76608431       6.54956268       4.23664563       0.00000000 NULL      -0.00205100      -0.00802800      -0.02582600
P        2.29563980       3.31594832      10.87968720       0.00000000 NULL       0.00205100       0.00802800      -0.02582600
P        0.76499161       1.57519715      11.27658798       0.00000000 NULL      -0.00004700       0.00042500       0.01940500
P        2.29673251       8.29031385       4.63354641       0.00000000 NULL       0.00004700      -0.00042500       0.01940500
P        2.29673251       6.50795264      11.27658798       0.00000000 NULL       0.00004700       0.00042500       0.01940500
P        0.76499161       3.35755835       4.63354641       0.00000000 NULL      -0.00004700      -0.00042500       0.01940500
12
Lattice="3.062187931837128 0.0 0.0 0.0 9.88305981298757 0.0 0.0 0.0 13.363569847440257" Properties=species:S:1:pos:R:3:initial_magmoms:R:1:castep_labels:S:1:forces:R:3 n_minim_iter=21 energy=-61.849355521029 stress="9.353853553155042e-05 -0.0 -0.0 -0.0 4.534752158732843e-05 0.0 -0.0 0.0 -0.0001483561229683591" free_energy=-61.849355521029 pbc="T T T"
P        0.76945209       1.65748220       6.02105746       0.00000000 NULL      -0.00023600       0.00449300       0.00594600
P        2.29273584       8.22557761      12.70284238       0.00000000 NULL       0.00023600      -0.00449300       0.00594600
P        2.29273584       6.59901211       6.02105746       0.00000000 NULL       0.00023600       0.00449300       0.00594600
P        0.76945209       3.28404770      12.70284238       0.00000000 NULL      -0.00023600      -0.00449300       0.00594700
P        2.30029858       1.62701732       4.25967013       0.00000000 NULL       0.00229000      -0.01231900      -0.01690200
P        0.76188936       8.25604249      10.94145506       0.00000000 NULL      -0.00229000       0.01231900      -0.01690200
P        0.76188936       6.56854723       4.25967013       0.00000000 NULL      -0.00229000      -0.01231900      -0.01690200
P        2.30029858       3.31451258      10.94145506       0.00000000 NULL       0.00229000       0.01231900      -0.01690200
P        0.77053656       1.57770029      11.35452816       0.00000000 NULL      -0.00449200      -0.00782600       0.01095600
P        2.29165137       8.30535952       4.67274324       0.00000000 NULL       0.00449200       0.00782600       0.01095600
P        2.29165137       6.51923019      11.35452816       0.00000000 NULL       0.00449200      -0.00782600       0.01095600
P        0.77053656       3.36382962       4.67274324       0.00000000 NULL      -0.00449200       0.00782600       0.01095600
