7
Lattice="4.343099999999996 2.46698890104772e-16 -3.580721257768672e-16 0.37665845681104265 4.451402817428763 -9.059287702928081e-16 0.7865502764913695 0.6486800524743469 7.699774748164604" Properties=species:S:1:pos:R:3:initial_magmoms:R:1:castep_labels:S:1 n_minim_iter=1 pbc="T T T"
P        1.07555407       4.57741234       1.72715649       0.00000000 NULL
P        4.19084133       0.99574781       3.38888877       0.00000000 NULL
P        2.48957732       3.13393399       2.19345331       0.00000000 NULL
P        4.69989260       2.93865412       2.62780146       0.00000000 NULL
P        3.65499199       2.00129809       5.30386356       0.00000000 NULL
P        1.65935930       2.11209007       3.99474093       0.00000000 NULL
P        4.56831590       4.24906946       7.68883722       0.00000000 NULL
7
Lattice="4.348434598541693 -0.0013307242869816077 -0.00011520714311224135 0.37575719545720127 4.457231110129312 -0.0015381413325804348 0.7871133873122774 0.6466618948810623 7.704578580612665" Properties=species:S:1:pos:R:3:initial_magmoms:R:1:castep_labels:S:1 n_minim_iter=2 pbc="T T T"
P        1.07547155       4.58288417       1.72613539       0.00000000 NULL
P        4.19547652       0.99461742       3.39086983       0.00000000 NULL
P        2.49177626       3.13652308       2.19359760       0.00000000 NULL
P        4.70437122       2.94013222       2.62839216       0.00000000 NULL
P        3.65870645       2.00103822       5.30660547       0.00000000 NULL
P        1.66086508       2.11291892       3.99687038       0.00000000 NULL
P        4.57245897       4.25071997       7.69245941       0.00000000 NULL
7
Lattice="4.561356125525922 -0.05693090306935655 -0.004703087547558436 0.3372363005421227 4.690721117280876 -0.06315532586585251 0.8092360907601652 0.5654269516172308 7.891935325862034" Properties=species:S:1:pos:R:3:initial_magmoms:R:1:castep_labels:S:1 n_minim_iter=3 pbc="T T T"
P        1.06950769       4.80220921       1.68380741       0.00000000 NULL
P        4.37981553       0.94714943       3.46806571       0.00000000 NULL
P        2.57791220       3.23904031       2.19791263       0.00000000 NULL
P        4.88111554       2.99703625       2.65044128       0.00000000 NULL
P        3.80578041       1.98878621       5.41291353       0.00000000 NULL
P        1.72009320       2.14497342       4.07958710       0.00000000 NULL
P        4.73546701       4.31453820       7.83269038       0.00000000 NULL
7
Lattice="4.625682797807356 -0.11705015232494997 -0.016161137700821334 0.2811966490478616 4.7886945041602065 -0.06585685366279506 0.7915928402878305 0.5666220136160036 7.85118307381399" Properties=species:S:1:pos:R:3:initial_magmoms:R:1:castep_labels:S:1 n_minim_iter=4 pbc="T T T"
P        1.01841318       4.89533206       1.65471458       0.00000000 NULL
P        4.41765670       0.91242321       3.44600035       0.00000000 NULL
P        2.56727983       3.27589212       2.17404218       0.00000000 NULL
P        4.89473808       2.99638580       2.62435797       0.00000000 NULL
P        3.81668036       1.98314899       5.37456250       0.00000000 NULL
P        1.71158408       2.16769696       4.05938576       0.00000000 NULL
P        4.72620413       4.34711051       7.79136753       0.00000000 NULL
7
Lattice="4.647544579623343 -0.1940945071114245 -0.03655620371497049 0.20412703679818897 4.880936551667477 -0.0525981409151582 0.7478869251910827 0.5930783376928727 7.707630412179824" Properties=species:S:1:pos:R:3:initial_magmoms:R:1:castep_labels:S:1 n_minim_iter=5 pbc="T T T"
P        0.93525855       4.98421992       1.61531492       0.00000000 NULL
P        4.40410974       0.87402121       3.37383826       0.00000000 NULL
P        2.51466774       3.30926696       2.12587724       0.00000000 NULL
P        4.84431616       2.98378003       2.56446336       0.00000000 NULL
P        3.77178555       1.98193359       5.26346735       0.00000000 NULL
P        1.67236307       2.19709758       3.98952709       0.00000000 NULL
P        4.64112757       4.38693502       7.65786748       0.00000000 NULL
7
Lattice="4.670298205691244 -0.4269504588514512 -0.11722732945108778 -0.03256226207796346 5.130955656815795 -0.008009254776285182 0.5742087605235036 0.6795131353466682 7.207394620891247" Properties=species:S:1:pos:R:3:initial_magmoms:R:1:castep_labels:S:1 n_minim_iter=6 pbc="T T T"
P        0.66619723       5.22173794       1.48997373       0.00000000 NULL
P        4.30490499       0.75535735       3.10548106       0.00000000 NULL
P        2.32199186       3.39401849       1.95500012       0.00000000 NULL
P        4.63227294       2.93212916       2.34480851       0.00000000 NULL
P        3.57422535       1.97450059       4.87208104       0.00000000 NULL
P        1.52304159       2.27560921       3.73971179       0.00000000 NULL
P        4.30516880       4.49279457       7.17580262       0.00000000 NULL
7
Lattice="4.931605042211102 -0.7244680597685506 -0.20811300576747221 -0.3148369638253984 5.353830717403617 0.04518107867161379 0.4159664902713979 0.7675097182220019 6.894555964394583" Properties=species:S:1:pos:R:3:initial_magmoms:R:1:castep_labels:S:1 n_minim_iter=7 pbc="T T T"
P        0.39774256       5.42085830       1.41136122       0.00000000 NULL
P        4.39777968       0.56448419       2.90721244       0.00000000 NULL
P        2.21756274       3.43910667       1.83337824       0.00000000 NULL
P        4.59764673       2.81558748       2.18603476       0.00000000 NULL
P        3.52720219       1.92216397       4.60809046       0.00000000 NULL
P        1.45808641       2.31136923       3.60208431       0.00000000 NULL
P        4.14173030       4.52947009       6.87423488       0.00000000 NULL
7
Lattice="4.6481608965672665 -0.6802379494877419 -0.17612691927479693 -0.2940857946078245 5.269177599652685 0.07051593846084335 0.4279472828391004 0.801649314674447 6.624752595804422" Properties=species:S:1:pos:R:3:initial_magmoms:R:1:castep_labels:S:1 n_minim_iter=8 pbc="T T T"
P        0.39212304       5.34954953       1.38016512       0.00000000 NULL
P        4.15516141       0.60833656       2.82220987       0.00000000 NULL
P        2.10512562       3.41240837       1.78699222       0.00000000 NULL
P        4.32590213       2.82230632       2.14102277       0.00000000 NULL
P        3.35051845       1.94332814       4.44499000       0.00000000 NULL
P        1.40963954       2.30272282       3.48329917       0.00000000 NULL
P        3.94345763       4.53060393       6.65443566       0.00000000 NULL
7
Lattice="4.813362817116633 -0.698821532353131 -0.16585321621035393 -0.29880553688144657 5.367040806739314 0.05577857793558383 0.4733042896320522 0.7857467186172985 6.749968749206554" Properties=species:S:1:pos:R:3:initial_magmoms:R:1:castep_labels:S:1 n_minim_iter=9 pbc="T T T"
P        0.42566336       5.44702204       1.38917409       0.00000000 NULL
P        4.31418279       0.59602511       2.88490369       0.00000000 NULL
P        2.18937202       3.46984160       1.81408683       0.00000000 NULL
P        4.48558870       2.85902505       2.18613049       0.00000000 NULL
P        3.49366318       1.95468322       4.53396235       0.00000000 NULL
P        1.48353399       2.32346259       3.55165184       0.00000000 NULL
P        4.11771063       4.57620326       6.77511755       0.00000000 NULL
7
Lattice="4.807139434007271 -0.7079333776609942 -0.16561852359225665 -0.3086843293922127 5.370050516242348 0.061920702300624735 0.47123236043322675 0.7952393565589498 6.728979169498488" Properties=species:S:1:pos:R:3:initial_magmoms:R:1:castep_labels:S:1 n_minim_iter=10 pbc="T T T"
P        0.41839720       5.45123530       1.38870632       0.00000000 NULL
P        4.30488341       0.59230255       2.87747469       0.00000000 NULL
P        2.17911721       3.47166395       1.81134623       0.00000000 NULL
P        4.46554530       2.85730820       2.18367718       0.00000000 NULL
P        3.48481163       1.95646719       4.52074450       0.00000000 NULL
P        1.48106610       2.32432134       3.54550179       0.00000000 NULL
P        4.10336179       4.58020612       6.75963452       0.00000000 NULL
7
Lattice="4.809539647057999 -0.7240279882456119 -0.164661019926153 -0.32497212713071133 5.381024694120295 0.06981735413420909 0.4709607106783619 0.8076427090058779 6.702871586113012" Properties=species:S:1:pos:R:3:initial_magmoms:R:1:castep_labels:S:1 n_minim_iter=11 pbc="T T T"
P        0.40955048       5.46391024       1.38730001       0.00000000 NULL
P        4.30168837       0.58438201       2.86921780       0.00000000 NULL
P        2.16864503       3.47786993       1.80784129       0.00000000 NULL
P        4.44427165       2.85632074       2.18189614       0.00000000 NULL
P        3.48154199       1.95840116       4.50441481       0.00000000 NULL
P        1.48246571       2.32557969       3.53959121       0.00000000 NULL
P        4.09315458       4.58712116       6.74098799       0.00000000 NULL
7
Lattice="4.831291421233634 -0.8137175978537448 -0.15935498690117866 -0.415011866305459 5.428053621038228 0.11014101265094359 0.4709110370405549 0.8683399214838141 6.550984226288878" Properties=species:S:1:pos:R:3:initial_magmoms:R:1:castep_labels:S:1 n_minim_iter=12 pbc="T T T"
P        0.36819040       5.52039058       1.37368819       0.00000000 NULL
P        4.29118941       0.53354622       2.82020181       0.00000000 NULL
P        2.11260076       3.50419720       1.78429458       0.00000000 NULL
P        4.32304481       2.84444180       2.16841490       0.00000000 NULL
P        3.47533010       1.95624568       4.40700047       0.00000000 NULL
P        1.49493993       2.31867456       3.50389834       0.00000000 NULL
P        4.04760552       4.60224107       6.62542436       0.00000000 NULL
