8
Lattice="3.4686784836617854 0.0 0.0 0.0 6.475532675859066 0.0 0.0 0.0 6.475532675859066" Properties=species:S:1:pos:R:3:initial_magmoms:R:1:castep_labels:S:1:forces:R:3 n_minim_iter=1 energy=-41.663273127215 stress="0.0024659259170672606 -6.875194237229935e-08 0.0 -6.875194237229935e-08 -0.002944439435978464 0.0 0.0 0.0 -0.002944439435978464" free_energy=-41.663273127215 pbc="T T T"
P        0.19464793       1.55550787       0.70925594       0.00000000 NULL      -0.04183500      -0.01996800      -0.11343900
P        1.92898718       4.92002480       5.76627673       0.00000000 NULL      -0.04183900       0.01996700       0.11344000
P        1.06181755       5.76627673       1.55550787       0.00000000 NULL      -0.04183500       0.11344000      -0.01996800
P       -0.67252169       0.70925594       4.92002480       0.00000000 NULL      -0.04183900      -0.11344000       0.01996800
P        1.03877296       2.11560892       5.01308354       0.00000000 NULL       0.04183900      -0.05977100      -0.00030700
P        2.77311220       4.35992375       1.46244913       0.00000000 NULL       0.04183500       0.05977200       0.00030700
P        1.90594258       1.46244913       2.11560892       0.00000000 NULL       0.04183500       0.00030700      -0.05977200
P        3.64028182       5.01308354       4.35992375       0.00000000 NULL       0.04183900      -0.00030700       0.05977100
8
Lattice="3.4483419867448695 0.0 0.0 0.0 6.521158629614261 0.0 0.0 0.0 6.521158629614261" Properties=species:S:1:pos:R:3:initial_magmoms:R:1:castep_labels:S:1:forces:R:3 n_minim_iter=2 energy=-41.668092402417 stress="0.002894862994480512 0.0 -0.0 0.0 0.0016881188529920396 -0.0 -0.0 -0.0 0.0016881188529920396" free_energy=-41.668092402417 pbc="T T T"
P        0.19282487       1.56613816       0.71238042       0.00000000 NULL      -0.02643900      -0.02114600      -0.07378400
P        1.91699586       4.95502047       5.80877821       0.00000000 NULL      -0.02643900       0.02114600       0.07378400
P        1.05491036       5.80877821       1.56613816       0.00000000 NULL      -0.02643900       0.07378400      -0.02114600
P       -0.66926063       0.71238042       4.95502047       0.00000000 NULL      -0.02643900      -0.07378400       0.02114600
P        1.03336461       2.12952847       5.04840016       0.00000000 NULL       0.02643900      -0.11502000       0.01075900
P        2.75753560       4.39163016       1.47275847       0.00000000 NULL       0.02643900       0.11502000      -0.01075900
P        1.89545011       1.47275847       2.12952847       0.00000000 NULL       0.02643900      -0.01075900      -0.11502000
P        3.61962110       5.04840016       4.39163016       0.00000000 NULL       0.02643900       0.01075900       0.11502000
8
Lattice="3.4311805518974414 0.0 0.0 0.0 6.522946632915165 0.0 0.0 0.0 6.522946632915165" Properties=species:S:1:pos:R:3:initial_magmoms:R:1:castep_labels:S:1:forces:R:3 n_minim_iter=3 energy=-41.669611423231 stress="-0.0011604684813836703 6.849654594402494e-08 -0.0 6.849654594402494e-08 1.678165375628611e-05 -0.0 -0.0 -0.0 1.678165375628611e-05" free_energy=-41.669611423231 pbc="T T T"
P        0.19146268       1.56630553       0.71144121       0.00000000 NULL      -0.03201700      -0.01241800      -0.08988600
P        1.90705296       4.95664110       5.81150543       0.00000000 NULL      -0.03201300       0.01241900       0.08988600
P        1.04925782       5.81150543       1.56630553       0.00000000 NULL      -0.03201700       0.08988600      -0.01241800
P       -0.66633245       0.71144121       4.95664110       0.00000000 NULL      -0.03201200      -0.08988600       0.01241800
P        1.02862439       2.12893272       5.04986502       0.00000000 NULL       0.03201300      -0.08097800      -0.00041600
P        2.74421467       4.39401392       1.47308161       0.00000000 NULL       0.03201600       0.08097700       0.00041600
P        1.88641953       1.47308161       2.12893272       0.00000000 NULL       0.03201600       0.00041600      -0.08097700
P        3.60200980       5.04986502       4.39401392       0.00000000 NULL       0.03201300      -0.00041600       0.08097700
8
Lattice="3.4424593264435015 0.0 0.0 0.0 6.524582428778152 0.0 0.0 0.0 6.524582428778152" Properties=species:S:1:pos:R:3:initial_magmoms:R:1:castep_labels:S:1:forces:R:3 n_minim_iter=4 energy=-41.679792266414 stress="-0.0002263452097491468 -0.0 0.0 -0.0 -0.0006930244046464682 0.0 0.0 0.0 -0.0006930244046464682" free_energy=-41.679792266414 pbc="T T T"
P        0.17903762       1.56050729       0.67406503       0.00000000 NULL       0.19891600      -0.07853800      -0.02290600
P        1.90026729       4.96407514       5.85051739       0.00000000 NULL       0.19891300       0.07853700       0.02290600
P        1.03965245       5.85051739       1.56050729       0.00000000 NULL       0.19891600       0.02290600      -0.07853800
P       -0.68157721       0.67406503       4.96407514       0.00000000 NULL       0.19891200      -0.02290600       0.07853800
P        1.04505998       2.09394116       5.05178869       0.00000000 NULL      -0.19891300      -0.04591600      -0.09921800
P        2.76628964       4.43064127       1.47279374       0.00000000 NULL      -0.19891500       0.04591600       0.09921700
P        1.90567481       1.47279374       2.09394116       0.00000000 NULL      -0.19891500       0.09921800      -0.04591600
P        3.62690447       5.05178869       4.43064127       0.00000000 NULL      -0.19891300      -0.09921800       0.04591600
8
Lattice="3.4546109523025055 0.0 0.0 0.0 6.539353686021837 0.0 0.0 0.0 6.539353686021837" Properties=species:S:1:pos:R:3:initial_magmoms:R:1:castep_labels:S:1:forces:R:3 n_minim_iter=5 energy=-41.698200410315 stress="-0.00048399089791834586 0.0 -0.0 0.0 -0.0016779930585311715 -0.0 -0.0 -0.0 -0.0016779930585311715" free_energy=-41.698200410315 pbc="T T T"
P        0.18502064       1.55082916       0.63780585       0.00000000 NULL       0.08611400      -0.03650600       0.02585000
P        1.91232612       4.98852453       5.90154784       0.00000000 NULL       0.08611400       0.03650600      -0.02585100
P        1.04867338       5.90154784       1.55082916       0.00000000 NULL       0.08611400      -0.02585100      -0.03650600
P       -0.67863210       0.63780585       4.98852453       0.00000000 NULL       0.08611400       0.02585000       0.03650600
P        1.04339789       2.05966154       5.05488460       0.00000000 NULL      -0.08611400      -0.00708400      -0.14801600
P        2.77070336       4.47969214       1.48446909       0.00000000 NULL      -0.08611400       0.00708400       0.14801600
P        1.90705062       1.48446909       2.05966154       0.00000000 NULL      -0.08611400       0.14801600      -0.00708400
P        3.63435610       5.05488460       4.47969214       0.00000000 NULL      -0.08611400      -0.14801600       0.00708400
8
Lattice="3.4644204846776807 0.0 0.0 0.0 6.5687921950306185 0.0 0.0 0.0 6.5687921950306185" Properties=species:S:1:pos:R:3:initial_magmoms:R:1:castep_labels:S:1:forces:R:3 n_minim_iter=6 energy=-41.715615561862 stress="-0.0006270806382087137 -0.0 0.0 -0.0 -0.0012895491212662016 0.0 0.0 0.0 -0.0012895491212662016" free_energy=-41.715615561862 pbc="T T T"
P        0.18276743       1.54135263       0.60828116       0.00000000 NULL       0.07417200       0.07197700      -0.15009200
P        1.91497767       5.02743957       5.96051103       0.00000000 NULL       0.07416800      -0.07197800       0.15009300
P        1.04887255       5.96051103       1.54135263       0.00000000 NULL       0.07417200       0.15009300       0.07197700
P       -0.68333769       0.60828116       5.02743957       0.00000000 NULL       0.07416700      -0.15009200      -0.07197800
P        1.04913912       2.01103570       5.02084658       0.00000000 NULL      -0.07416800       0.13934700      -0.07560800
P        2.78134936       4.55775650       1.54794562       0.00000000 NULL      -0.07417100      -0.13934700       0.07560700
P        1.91524424       1.54794562       2.01103570       0.00000000 NULL      -0.07417200       0.07560800       0.13934700
P        3.64745448       5.02084658       4.55775650       0.00000000 NULL      -0.07416700      -0.07560700      -0.13934700
8
Lattice="3.4595754206860416 0.0 0.0 0.0 6.5574396709544365 0.0 0.0 0.0 6.5574396709544365" Properties=species:S:1:pos:R:3:initial_magmoms:R:1:castep_labels:S:1:forces:R:3 n_minim_iter=7 energy=-41.742069879557 stress="0.00010103400747231667 -0.0 0.0 -0.0 0.000829984624258612 0.0 0.0 0.0 0.000829984624258612" free_energy=-41.742069879557 pbc="T T T"
P        0.18257975       1.53901883       0.54732114       0.00000000 NULL       0.00846500       0.13010400      -0.03363000
P        1.91236746       5.01842084       6.01011853       0.00000000 NULL       0.00846100      -0.13010500       0.03363100
P        1.04747361       6.01011853       1.53901883       0.00000000 NULL       0.00846500       0.03363000       0.13010400
P       -0.68231410       0.54732114       5.01842084       0.00000000 NULL       0.00846100      -0.03363000      -0.13010400
P        1.04760384       1.97039081       4.94018760       0.00000000 NULL      -0.00846100       0.04156600      -0.04652300
P        2.77739155       4.58704886       1.61725207       0.00000000 NULL      -0.00846400      -0.04156600       0.04652300
P        1.91249770       1.61725207       1.97039081       0.00000000 NULL      -0.00846500       0.04652300       0.04156600
P        3.64228541       4.94018760       4.58704886       0.00000000 NULL      -0.00846100      -0.04652300      -0.04156600
8
Lattice="3.4484209927291696 0.0 0.0 0.0 6.560577471376534 0.0 0.0 0.0 6.560577471376534" Properties=species:S:1:pos:R:3:initial_magmoms:R:1:castep_labels:S:1:forces:R:3 n_minim_iter=8 energy=-41.788605146587 stress="0.001597921345669961 0.0 -0.0 0.0 0.0039640468985891065 -0.0 -0.0 -0.0 0.0039640468985891065" free_energy=-41.788605146587 pbc="T T T"
P        0.19152302       1.61910797       0.45994526       0.00000000 NULL      -0.08861200       0.07862200       0.01482500
P        1.91573351       4.94146950       6.10063221       0.00000000 NULL      -0.08861200      -0.07862200      -0.01482500
P        1.05362826       6.10063221       1.61910797       0.00000000 NULL      -0.08861200      -0.01482500       0.07862200
P       -0.67058223       0.45994526       4.94146950       0.00000000 NULL      -0.08861200       0.01482500      -0.07862200
P        1.03469420       1.88358532       4.80660040       0.00000000 NULL       0.08861200      -0.03182800      -0.00603900
P        2.75890469       4.67699215       1.75397707       0.00000000 NULL       0.08861200       0.03182800       0.00603900
P        1.89679944       1.75397707       1.88358532       0.00000000 NULL       0.08861200       0.00603900      -0.03182800
P        3.62100994       4.80660040       4.67699215       0.00000000 NULL       0.08861200      -0.00603900       0.03182800
8
Lattice="3.44668300288115 0.0 0.0 0.0 6.534851336493353 0.0 0.0 0.0 6.534851336493353" Properties=species:S:1:pos:R:3:initial_magmoms:R:1:castep_labels:S:1:forces:R:3 n_minim_iter=9 energy=-41.801397398501 stress="0.001854157950951126 0.0 0.0 0.0 0.00361680035612045 -0.0 0.0 -0.0 0.00361680035612045" free_energy=-41.801397398501 pbc="T T T"
P        0.19060437       1.64418444       0.41303402       0.00000000 NULL      -0.07120200       0.04463800       0.05235000
P        1.91394587       4.89066690       6.12181731       0.00000000 NULL      -0.07120200      -0.04463800      -0.05235000
P        1.05227512       6.12181731       1.64418444       0.00000000 NULL      -0.07120200      -0.05235000       0.04463800
P       -0.67106638       0.41303402       4.89066690       0.00000000 NULL      -0.07120200       0.05235000      -0.04463800
P        1.03499483       1.83585917       4.71782523       0.00000000 NULL       0.07120200      -0.05474400       0.02523800
P        2.75833633       4.69899216       1.81702610       0.00000000 NULL       0.07120200       0.05474400      -0.02523800
P        1.89666558       1.81702610       1.83585917       0.00000000 NULL       0.07120200      -0.02523800      -0.05474400
P        3.62000708       4.71782523       4.69899216       0.00000000 NULL       0.07120200       0.02523800       0.05474400
8
Lattice="3.4458977051509643 0.0 0.0 0.0 6.50027894776786 0.0 0.0 0.0 6.50027894776786" Properties=species:S:1:pos:R:3:initial_magmoms:R:1:castep_labels:S:1:forces:R:3 n_minim_iter=10 energy=-41.807480471526 stress="0.00017939352333182313 0.0 -0.0 0.0 0.0010210046392997252 -0.0 -0.0 -0.0 0.0010210046392997252" free_energy=-41.807480471526 pbc="T T T"
P        0.18820659       1.65091346       0.41934466       0.00000000 NULL      -0.01715200       0.00475800       0.02420000
P        1.91115544       4.84936549       6.08093429       0.00000000 NULL      -0.01714900      -0.00475700      -0.02420100
P        1.04968101       6.08093429       1.65091346       0.00000000 NULL      -0.01715200      -0.02420000       0.00475800
P       -0.67326784       0.41934466       4.84936549       0.00000000 NULL      -0.01714900       0.02420000      -0.00475800
P        1.03711341       1.83533936       4.69188073       0.00000000 NULL       0.01714900      -0.01343400       0.00147300
P        2.76006226       4.66493959       1.80839822       0.00000000 NULL       0.01715200       0.01343400      -0.00147300
P        1.89858784       1.80839822       1.83533936       0.00000000 NULL       0.01715200      -0.00147300      -0.01343400
P        3.62153669       4.69188073       4.66493959       0.00000000 NULL       0.01714900       0.00147300       0.01343400
8
Lattice="3.448622064862324 0.0 0.0 0.0 6.479906807231121 0.0 0.0 0.0 6.479906807231121" Properties=species:S:1:pos:R:3:initial_magmoms:R:1:castep_labels:S:1:forces:R:3 n_minim_iter=11 energy=-41.808059466586 stress="-0.00029439619494049717 -0.0 0.0 -0.0 -0.00019073945353639528 0.0 0.0 0.0 -0.00019073945353639528" free_energy=-41.808059466586 pbc="T T T"
P        0.18693680       1.64603230       0.43055410       0.00000000 NULL       0.00537200      -0.00588500       0.00289500
P        1.91124783       4.83387451       6.04935271       0.00000000 NULL       0.00537200       0.00588500      -0.00289500
P        1.04909231       6.04935271       1.64603230       0.00000000 NULL       0.00537200      -0.00289500      -0.00588500
P       -0.67521872       0.43055410       4.83387451       0.00000000 NULL       0.00537200       0.00289500       0.00588500
P        1.03935201       1.84397022       4.68364818       0.00000000 NULL      -0.00537200      -0.00459400      -0.00734100
P        2.76366304       4.63593659       1.79625863       0.00000000 NULL      -0.00537200       0.00459400       0.00734100
P        1.90150753       1.79625863       1.84397022       0.00000000 NULL      -0.00537200       0.00734100      -0.00459400
P        3.62581856       4.68364818       4.63593659       0.00000000 NULL      -0.00537200      -0.00734100       0.00459400
8
Lattice="3.450109333598387 0.0 0.0 0.0 6.4818744465141105 0.0 0.0 0.0 6.4818744465141105" Properties=species:S:1:pos:R:3:initial_magmoms:R:1:castep_labels:S:1:forces:R:3 n_minim_iter=12 energy=-41.808161996547 stress="5.794891391866966e-06 -0.0 0.0 -0.0 -8.416389878663927e-05 0.0 0.0 0.0 -8.416389878663927e-05" free_energy=-41.808161996547 pbc="T T T"
P        0.18714415       1.64697445       0.42622389       0.00000000 NULL       0.00078700      -0.00309300       0.00151900
P        1.91219882       4.83490000       6.05565056       0.00000000 NULL       0.00078400       0.00309300      -0.00151800
P        1.04967149       6.05565056       1.64697445       0.00000000 NULL       0.00078700      -0.00151800      -0.00309300
P       -0.67538318       0.42622389       4.83490000       0.00000000 NULL       0.00078400       0.00151800       0.00309300
P        1.03967352       1.83858973       4.67923359       0.00000000 NULL      -0.00078400       0.00055800       0.00034200
P        2.76472818       4.64328472       1.80264085       0.00000000 NULL      -0.00078700      -0.00055800      -0.00034200
P        1.90220085       1.80264085       1.83858973       0.00000000 NULL      -0.00078700      -0.00034200       0.00055800
P        3.62725552       4.67923359       4.64328472       0.00000000 NULL      -0.00078400       0.00034200      -0.00055800
