2
Lattice="3.1314599999999992 -1.695341177371985e-16 4.627117346943293e-17 -1.0342289518514134 3.721876796073767 -1.937959970075357e-15 -0.5061071616725346 -2.003756920340259 3.603889465770599" Properties=species:S:1:pos:R:3:initial_magmoms:R:1:castep_labels:S:1 n_minim_iter=1 pbc="T T T"
P        0.25694667      -0.00229245       1.02458361       0.00000000 NULL
P        2.02037739       1.27289089       0.23289559       0.00000000 NULL
2
Lattice="3.1319150509870375 -0.0007877079929896596 0.0004994531529889564 -1.035315467089207 3.7215571605917304 -0.0004387929032769418 -0.5051018655054446 -2.003582623804616 3.6036602261473445" Properties=species:S:1:pos:R:3:initial_magmoms:R:1:castep_labels:S:1 n_minim_iter=2 pbc="T T T"
P        0.25733569      -0.00248231       1.02461033       0.00000000 NULL
P        2.02020025       1.27221744       0.23303535       0.00000000 NULL
2
Lattice="3.1766667827286397 -0.07591678379330237 0.04844247094984506 -1.1393898287429756 3.691871599939247 -0.0426015344453948 -0.4090851287700829 -1.9875936860901287 3.582194147825313" Properties=species:S:1:pos:R:3:initial_magmoms:R:1:castep_labels:S:1 n_minim_iter=3 pbc="T T T"
P        0.29507943      -0.02098802       1.02752582       0.00000000 NULL
P        2.00377010       1.20858580       0.24626554       0.00000000 NULL
2
Lattice="3.187609244093335 -0.1098454163432411 0.06652660031809138 -1.1833294609139169 3.597453193727395 -0.05172807529148838 -0.36833101486331804 -1.9282989405720785 3.536561793350279" Properties=species:S:1:pos:R:3:initial_magmoms:R:1:castep_labels:S:1 n_minim_iter=4 pbc="T T T"
P        0.30857737      -0.02247785       1.02078144       0.00000000 NULL
P        1.99172525       1.14827716       0.24958993       0.00000000 NULL
2
Lattice="3.239943850633151 -0.1443542320428419 0.07827215316309234 -1.2416292717623914 3.4612831339230894 -0.06778836864276973 -0.34119030948453 -1.8550703390749381 3.4852184801246584" Properties=species:S:1:pos:R:3:initial_magmoms:R:1:castep_labels:S:1 n_minim_iter=5 pbc="T T T"
P        0.31997718      -0.02718136       1.01749358       0.00000000 NULL
P        2.00909981       1.07339147       0.23772046       0.00000000 NULL
2
Lattice="3.3021092887450947 -0.15829859829792353 0.07393691777951512 -1.2787341714260123 3.359025121507071 -0.07428010754831386 -0.3473040590403582 -1.8029566502378658 3.46218364827707" Properties=species:S:1:pos:R:3:initial_magmoms:R:1:castep_labels:S:1 n_minim_iter=6 pbc="T T T"
P        0.31906266      -0.02993914       1.02228066       0.00000000 NULL
P        2.04782470       1.02684956       0.21730534       0.00000000 NULL
2
Lattice="3.458907896002388 -0.22224968981062532 0.06719337834401228 -1.406528792088639 3.090756472607381 -0.0848134851480175 -0.33948579747065477 -1.6491773314314482 3.4041869830764275" Properties=species:S:1:pos:R:3:initial_magmoms:R:1:castep_labels:S:1 n_minim_iter=7 pbc="T T T"
P        0.31468420      -0.03576425       1.04837361       0.00000000 NULL
P        2.13757716       0.88306177       0.15893820       0.00000000 NULL
2
Lattice="3.4394791160211575 -0.252596764481039 0.06664398803151998 -1.4361808605451374 3.170750040997367 -0.047670144678480506 -0.3175595191167221 -1.6461528510688366 3.3910729722309867" Properties=species:S:1:pos:R:3:initial_magmoms:R:1:castep_labels:S:1 n_minim_iter=8 pbc="T T T"
P        0.30521018      -0.01043288       1.08491789       0.00000000 NULL
P        2.12038776       0.87203589       0.13694922       0.00000000 NULL
2
Lattice="3.402162376475761 -0.2657863392358061 0.06713455373244323 -1.4395326261124137 3.106649324385786 -0.07181044202677014 -0.30252406747843436 -1.63038399402247 3.3672347523857917" Properties=species:S:1:pos:R:3:initial_magmoms:R:1:castep_labels:S:1 n_minim_iter=9 pbc="T T T"
P        0.30028071      -0.01953983       1.08203718       0.00000000 NULL
P        2.09302428       0.84007926       0.11920647       0.00000000 NULL
