6
Lattice="3.848519999999997 -2.9915517036197724e-17 0.0 -0.04152587355497878 4.693896318435835 0.0 0.0 0.0 7.2816" Properties=species:S:1:pos:R:3:initial_magmoms:R:1:castep_labels:S:1 n_minim_iter=1 pbc="T T T"
P        0.49749130       3.35199210       6.81369603       0.00000000 NULL
P        3.30950283       1.34190422       3.17289603       0.00000000 NULL
P        0.58228405       4.05165067       3.16545497       0.00000000 NULL
P        3.22471008       0.64224565       6.80625497       0.00000000 NULL
P        2.61062942       3.24092324       3.46060734       0.00000000 NULL
P        1.19636471       1.45297308       7.10140734       0.00000000 NULL
6
Lattice="3.851306330151548 0.0002681239832585249 0.0 -0.04122891748242464 4.6974222023494985 0.0 0.0 0.0 7.277773629006013" Properties=species:S:1:pos:R:3:initial_magmoms:R:1:castep_labels:S:1 n_minim_iter=2 pbc="T T T"
P        0.49805133       3.35466372       6.81008097       0.00000000 NULL
P        3.31202608       1.34302661       3.17119415       0.00000000 NULL
P        0.58308661       4.05489239       3.16370904       0.00000000 NULL
P        3.22699081       0.64279794       6.80259585       0.00000000 NULL
P        2.61261987       3.24351523       3.45890595       0.00000000 NULL
P        1.19745754       1.45417509       7.09779276       0.00000000 NULL
6
Lattice="3.9824218206026725 0.013345907431344088 0.0 -0.026693180549084636 4.864851181152562 0.0 0.0 0.0 7.0988802934041955" Properties=species:S:1:pos:R:3:initial_magmoms:R:1:castep_labels:S:1 n_minim_iter=3 pbc="T T T"
P        0.52479553       3.48167335       6.64110653       0.00000000 NULL
P        3.43093312       1.39652374       3.09166638       0.00000000 NULL
P        0.62143727       4.20909754       3.08215980       0.00000000 NULL
P        3.33429137       0.66909955       6.63159995       0.00000000 NULL
P        2.70657893       3.36674324       3.37924351       0.00000000 NULL
P        1.24914971       1.51145385       6.92868365       0.00000000 NULL
6
Lattice="3.9864865850593008 0.024296945826063596 0.0 -0.013380466594326294 4.927254167062032 0.0 0.0 0.0 6.905166834884987" Properties=species:S:1:pos:R:3:initial_magmoms:R:1:castep_labels:S:1 n_minim_iter=4 pbc="T T T"
P        0.53469813       3.53040275       6.45901893       0.00000000 NULL
P        3.43840799       1.42114836       3.00643551       0.00000000 NULL
P        0.63362981       4.27131664       2.99524245       0.00000000 NULL
P        3.33947631       0.68023448       6.44782587       0.00000000 NULL
P        2.71884570       3.41431135       3.29070862       0.00000000 NULL
P        1.25426042       1.53723976       6.74329204       0.00000000 NULL
6
Lattice="3.9452537971854817 0.062086308772119535 0.0 0.03315471553908991 5.042699367067996 0.0 0.0 0.0 6.498619516764001" Properties=species:S:1:pos:R:3:initial_magmoms:R:1:castep_labels:S:1 n_minim_iter=5 pbc="T T T"
P        0.56269501       3.62272807       6.07775872       0.00000000 NULL
P        3.41571351       1.48205761       2.82844896       0.00000000 NULL
P        0.66597819       4.39401910       2.81304792       0.00000000 NULL
P        3.31243032       0.71076658       6.06235768       0.00000000 NULL
P        2.72619394       3.50982649       3.10379288       0.00000000 NULL
P        1.25221457       1.59495918       6.35310264       0.00000000 NULL
6
Lattice="3.838347740379353 0.14860453665308357 0.0 0.13983129737450786 5.342226276945447 0.0 0.0 0.0 5.992975433965944" Properties=species:S:1:pos:R:3:initial_magmoms:R:1:castep_labels:S:1 n_minim_iter=6 pbc="T T T"
P        0.62638692       3.85437556       5.60645257       0.00000000 NULL
P        3.35179212       1.63645526       2.60996486       0.00000000 NULL
P        0.73857432       4.69831517       2.58551296       0.00000000 NULL
P        3.23960472       0.79251565       5.58200068       0.00000000 NULL
P        2.73572886       3.75083478       2.86935912       0.00000000 NULL
P        1.24245018       1.73999603       5.86584684       0.00000000 NULL
6
Lattice="3.7445172633298345 0.15520672819564543 0.0 0.14889618338284374 5.6399690638850455 0.0 0.0 0.0 5.573107605541072" Properties=species:S:1:pos:R:3:initial_magmoms:R:1:castep_labels:S:1 n_minim_iter=7 pbc="T T T"
P        0.62257834       4.06740717       5.21660271       0.00000000 NULL
P        3.27083511       1.72776862       2.43004891       0.00000000 NULL
P        0.72690996       4.97196774       2.39674558       0.00000000 NULL
P        3.16650349       0.82320805       5.18329938       0.00000000 NULL
P        2.68811583       3.93473905       2.67302001       0.00000000 NULL
P        1.20529762       1.86043675       5.45957381       0.00000000 NULL
6
Lattice="3.7268869764845083 0.1390011169362225 0.0 0.12932103606222942 5.6541395843082425 0.0 0.0 0.0 5.316639469221614" Properties=species:S:1:pos:R:3:initial_magmoms:R:1:castep_labels:S:1 n_minim_iter=8 pbc="T T T"
P        0.60652249       4.07475171       4.97801830       0.00000000 NULL
P        3.24968553       1.71838900       2.31969856       0.00000000 NULL
P        0.70736176       4.98198896       2.28180499       0.00000000 NULL
P        3.14884626       0.81115174       4.94012472       0.00000000 NULL
P        2.66661452       3.91745557       2.55317792       0.00000000 NULL
P        1.18959350       1.87568514       5.21149766       0.00000000 NULL
6
Lattice="3.753192987467258 0.12418967456303397 0.0 0.11097222797183648 5.709106148796682 0.0 0.0 0.0 5.101344460715344" Properties=species:S:1:pos:R:3:initial_magmoms:R:1:castep_labels:S:1 n_minim_iter=9 pbc="T T T"
P        0.59765160       4.11527355       4.77755568       0.00000000 NULL
P        3.26651362       1.71802227       2.22688345       0.00000000 NULL
P        0.69703379       5.02490806       2.18541998       0.00000000 NULL
P        3.16713143       0.80838776       4.73609221       0.00000000 NULL
P        2.67494399       3.93168852       2.45265233       0.00000000 NULL
P        1.18922123       1.90160731       5.00332456       0.00000000 NULL
6
Lattice="3.753291737292087 0.12405159227073201 0.0 0.11080274863011116 5.709114753439201 0.0 0.0 0.0 5.099586874096504" Properties=species:S:1:pos:R:3:initial_magmoms:R:1:castep_labels:S:1 n_minim_iter=10 pbc="T T T"
P        0.59754726       4.11530077       4.77591874       0.00000000 NULL
P        3.26654723       1.71786557       2.22612531       0.00000000 NULL
P        0.69691371       5.02484436       2.18463717       0.00000000 NULL
P        3.16718078       0.80832198       4.73443060       0.00000000 NULL
P        2.67491813       3.93149887       2.45182807       0.00000000 NULL
P        1.18917636       1.90166748       5.00162151       0.00000000 NULL
6
Lattice="3.7702104694674 0.10079557202225309 0.0 0.08225569340918765 5.710749947946665 0.0 0.0 0.0 4.8126015349847036" Properties=species:S:1:pos:R:3:initial_magmoms:R:1:castep_labels:S:1 n_minim_iter=11 pbc="T T T"
P        0.57997860       4.12003115       4.50859192       0.00000000 NULL
P        3.27248757       1.69151437       2.10229115       0.00000000 NULL
P        0.67679137       5.01425553       2.05695638       0.00000000 NULL
P        3.17567480       0.79728999       4.46325714       0.00000000 NULL
P        2.67084933       3.89967405       2.31714254       0.00000000 NULL
P        1.18161684       1.91187148       4.72344331       0.00000000 NULL
6
Lattice="3.85718795148907 0.06796270976812556 0.0 0.0412721809995025 5.7334607932932835 0.0 0.0 0.0 4.551885575613263" Properties=species:S:1:pos:R:3:initial_magmoms:R:1:castep_labels:S:1 n_minim_iter=12 pbc="T T T"
P        0.56305447       4.14751773       4.26658455       0.00000000 NULL
P        3.33540566       1.65390578       1.99064177       0.00000000 NULL
P        0.66186921       5.01058949       1.93844745       0.00000000 NULL
P        3.23659093       0.79083402       4.21439024       0.00000000 NULL
P        2.70766614       3.85939468       2.19645147       0.00000000 NULL
P        1.19079400       1.94202882       4.47239426       0.00000000 NULL
6
Lattice="3.851923368047822 0.04201103814064004 0.0 0.009676700273610716 5.616771384995162 0.0 0.0 0.0 4.593755184070334" Properties=species:S:1:pos:R:3:initial_magmoms:R:1:castep_labels:S:1 n_minim_iter=13 pbc="T T T"
P        0.53938757       4.06694363       4.30697021       0.00000000 NULL
P        3.32221251       1.59183880       2.01009262       0.00000000 NULL
P        0.63817297       4.89034676       1.95289443       0.00000000 NULL
P        3.22342710       0.76843567       4.24977202       0.00000000 NULL
P        2.68664600       3.74094158       2.21889820       0.00000000 NULL
P        1.17495407       1.91784084       4.51577579       0.00000000 NULL
