5
Lattice="3.061599999999999 1.3293779558442806e-15 1.381763819118345e-17 -0.9889694191169704 3.557150597451765 -7.121382630070231e-16 -0.24425533634937674 -0.5930927644938018 9.617294156828619" Properties=species:S:1:pos:R:3:initial_magmoms:R:1:castep_labels:S:1 n_minim_iter=1 pbc="T T T"
P        0.87934929       1.24845867       1.06271100       0.00000000 NULL
P       -0.55275877       2.08307735       6.07582464       0.00000000 NULL
P        0.19638576       2.07616215       9.31810783       0.00000000 NULL
P        0.71813476       0.23055445       7.83303123       0.00000000 NULL
P        1.24498615       2.46215043       7.63546604       0.00000000 NULL
5
Lattice="3.066169116070604 0.00014257938824205164 -0.0015109023311642067 -0.9902796946951499 3.561376083705018 -0.0004314531257538593 -0.24939362546200697 -0.5963023800646535 9.632764792857131" Properties=species:S:1:pos:R:3:initial_magmoms:R:1:castep_labels:S:1 n_minim_iter=2 pbc="T T T"
P        0.88025937       1.24952724       1.06378072       0.00000000 NULL
P       -0.55629913       2.08387420       6.08488261       0.00000000 NULL
P        0.19194793       2.07633281       9.33261757       0.00000000 NULL
P        0.71528230       0.22905218       7.84497350       0.00000000 NULL
P        1.24323911       2.46320709       7.64601208       0.00000000 NULL
5
Lattice="3.2514870850404196 0.0065635737522397345 -0.0642930422206446 -1.0426814977346994 3.731525083955099 -0.018800670643676368 -0.46263750292893024 -0.7300241750253549 10.258519727516891" Properties=species:S:1:pos:R:3:initial_magmoms:R:1:castep_labels:S:1 n_minim_iter=3 pbc="T T T"
P        0.91684786       1.29205646       1.10617197       0.00000000 NULL
P       -0.70201252       2.11325770       6.45016027       0.00000000 NULL
P        0.00729106       2.07903178       9.91896747       0.00000000 NULL
P        0.59569044       0.16537995       8.32710703       0.00000000 NULL
P        1.16941731       2.50279636       8.07007583       0.00000000 NULL
5
Lattice="3.324396147877021 0.019209230598356768 -0.08724742045237088 -1.0515403714335945 3.7836115428578645 -0.05739587447440944 -0.5430096883500783 -0.864793655092854 10.414423602509896" Properties=species:S:1:pos:R:3:initial_magmoms:R:1:castep_labels:S:1 n_minim_iter=4 pbc="T T T"
P        0.93669233       1.29611934       1.09909844       0.00000000 NULL
P       -0.74796860       2.06519868       6.52056550       0.00000000 NULL
P       -0.05308748       1.99327893      10.04412112       0.00000000 NULL
P        0.55190003       0.07547353       8.43528737       0.00000000 NULL
P        1.15300078       2.44769844       8.13598273       0.00000000 NULL
5
Lattice="3.384030761865338 0.03913914769120449 -0.11255615113393162 -1.0476479926320872 3.7828727565452023 -0.11108549562928406 -0.631129583183843 -1.0345951043008301 10.467621751715683" Properties=species:S:1:pos:R:3:initial_magmoms:R:1:castep_labels:S:1 n_minim_iter=5 pbc="T T T"
P        0.95527422       1.27997419       1.07056704       0.00000000 NULL
P       -0.79035604       1.96071247       6.51869167       0.00000000 NULL
P       -0.11673314       1.83542688      10.06032347       0.00000000 NULL
P        0.49847475      -0.05153048       8.45460442       0.00000000 NULL
P        1.13112347       2.32711456       8.10508803       0.00000000 NULL
5
Lattice="3.43451073874982 0.06487004464726702 -0.14059606598862343 -1.0340585223996122 3.736731689282418 -0.17183653133363022 -0.7282222542811158 -1.2190786151168354 10.477165333494453" Properties=species:S:1:pos:R:3:initial_magmoms:R:1:castep_labels:S:1 n_minim_iter=6 pbc="T T T"
P        0.97294918       1.24874486       1.03129799       0.00000000 NULL
P       -0.83220417       1.81725642       6.48501376       0.00000000 NULL
P       -0.18607522       1.62989582      10.02987285       0.00000000 NULL
P        0.43574601      -0.19804137       8.43476165       0.00000000 NULL
P        1.10404843       2.16206381       8.03220693       0.00000000 NULL
5
Lattice="3.568977045426523 0.13402689047498353 -0.22008740764781984 -0.9971437555296473 3.611113382330449 -0.31062442692216335 -1.0020503681751716 -1.6520332864703644 10.663809860593126" Properties=species:S:1:pos:R:3:initial_magmoms:R:1:castep_labels:S:1 n_minim_iter=7 pbc="T T T"
P        1.01863497       1.17481501       0.95334356       0.00000000 NULL
P       -0.95402334       1.46987616       6.50735592       0.00000000 NULL
P       -0.38842564       1.13362504      10.12299883       0.00000000 NULL
P        0.25710538      -0.54023361       8.51289683       0.00000000 NULL
P        1.02443468       1.76674089       7.98498223       0.00000000 NULL
5
Lattice="3.602977772954021 0.17753516336535025 -0.29870455989278344 -0.9575762747504378 3.494656507054834 -0.3194336442173948 -1.2601486108905 -1.7309073554003125 11.094723839097474" Properties=species:S:1:pos:R:3:initial_magmoms:R:1:castep_labels:S:1 n_minim_iter=8 pbc="T T T"
P        1.02027061       1.14341704       0.95805767       0.00000000 NULL
P       -1.08404461       1.34790140       6.77185008       0.00000000 NULL
P       -0.61540289       0.97539384      10.55272900       0.00000000 NULL
P        0.06523252      -0.60084403       8.80630179       0.00000000 NULL
P        0.89460614       1.63411002       8.24159969       0.00000000 NULL
5
Lattice="3.572384526967015 0.21163426568363694 -0.3682537923097404 -0.9080755473867265 3.3908502875494406 -0.33714372612708193 -1.4827860533413824 -1.826778693757289 11.370516425532132" Properties=species:S:1:pos:R:3:initial_magmoms:R:1:castep_labels:S:1 n_minim_iter=9 pbc="T T T"
P        0.99990165       1.10814887       0.95159514       0.00000000 NULL
P       -1.19635610       1.22136488       6.94239556       0.00000000 NULL
P       -0.82353993       0.81028809      10.81697539       0.00000000 NULL
P       -0.11203834      -0.67385830       8.97553314       0.00000000 NULL
P        0.75284005       1.48984037       8.37092659       0.00000000 NULL
5
Lattice="3.581446822413442 0.2256084889302904 -0.42798441364805745 -0.8947667926482809 3.4025511936434265 -0.3350240011971013 -1.6738457869121193 -1.8770314642692703 11.677540450038544" Properties=species:S:1:pos:R:3:initial_magmoms:R:1:castep_labels:S:1 n_minim_iter=10 pbc="T T T"
P        0.98604121       1.11113453       0.96371301       0.00000000 NULL
P       -1.30770697       1.20078444       7.13798172       0.00000000 NULL
P       -1.00875998       0.77236866      11.11694828       0.00000000 NULL
P       -0.25616341      -0.69370866       9.18853533       0.00000000 NULL
P        0.62888130       1.45933583       8.55649292       0.00000000 NULL
