10
Lattice="5.75993 6.496093029091221e-16 -1.191954818359997e-16 1.1805002997641159 5.939613755654222 1.4753433126105163e-15 1.107517366549167 0.24833823565323224 6.119877203106664" Properties=species:S:1:pos:R:3:initial_magmoms:R:1:castep_labels:S:1 n_minim_iter=1 pbc="T T T"
P        3.06136964       4.27104166       5.83514563       0.00000000 NULL
P        5.12359781       0.73509175       4.71765973       0.00000000 NULL
P        6.81706211       4.92799976       5.58482062       0.00000000 NULL
P        4.79005468       4.72069059       3.09528518       0.00000000 NULL
P        3.46614345       1.20311832       3.64624426       0.00000000 NULL
P        5.54784923       5.43775823       1.37470067       0.00000000 NULL
P        2.16106029       4.83403857       3.90160225       0.00000000 NULL
P        5.75673467       2.57359781       5.35566978       0.00000000 NULL
P        6.35659548       1.95973516       3.52609577       0.00000000 NULL
P        5.22576881       2.12587366       1.16613832       0.00000000 NULL
10
Lattice="5.767523186113761 -0.00024419899459896335 -0.0007499375528366456 1.181804709848271 5.946170828848394 -0.0008207780481678954 1.1081700508365797 0.24788020485101583 6.134378968604886" Properties=species:S:1:pos:R:3:initial_magmoms:R:1:castep_labels:S:1 n_minim_iter=2 pbc="T T T"
P        3.06456091       4.27500520       5.84824968       0.00000000 NULL
P        5.12964029       0.73513804       4.72816388       0.00000000 NULL
P        6.82494932       4.93226291       5.59700997       0.00000000 NULL
P        4.79566670       4.72542563       3.10171393       0.00000000 NULL
P        3.46997208       1.20379561       3.65425228       0.00000000 NULL
P        5.55485285       5.44369929       1.37667789       0.00000000 NULL
P        2.16342838       4.83883040       3.90987805       0.00000000 NULL
P        5.76342285       2.57594404       5.36757273       0.00000000 NULL
P        6.36464207       1.96123304       3.53325664       0.00000000 NULL
P        5.23241756       2.12774659       1.16821682       0.00000000 NULL
10
Lattice="5.944227976095209 -0.005991678636885986 -0.018706415258185248 1.2120936627347092 6.096971130476917 -0.020209223683795113 1.1228203792513358 0.2369443756830256 6.473284313367491" Properties=species:S:1:pos:R:3:initial_magmoms:R:1:castep_labels:S:1 n_minim_iter=3 pbc="T T T"
P        3.13826506       4.36579197       6.15412466       0.00000000 NULL
P        5.26979250       0.73583655       4.97317032       0.00000000 NULL
P        7.00790027       5.02957689       5.88168266       0.00000000 NULL
P        4.92589497       4.83420871       3.25165250       0.00000000 NULL
P        3.55863997       1.21886363       3.84100482       0.00000000 NULL
P        5.71769199       5.58039156       1.42241246       0.00000000 NULL
P        2.21832788       4.94869965       4.10293404       0.00000000 NULL
P        5.91854144       2.62969496       5.64546568       0.00000000 NULL
P        6.55168114       1.99530076       3.69997613       0.00000000 NULL
P        5.38695406       2.17045756       1.21653053       0.00000000 NULL
10
Lattice="6.011443526268618 -0.0059649502154592365 -0.030887216373294984 1.2258970828505933 6.120602112185447 -0.02212009634073739 1.1228037158106836 0.23854066954586248 6.541500687810617" Properties=species:S:1:pos:R:3:initial_magmoms:R:1:castep_labels:S:1 n_minim_iter=4 pbc="T T T"
P        3.16157616       4.38439853       6.21202481       0.00000000 NULL
P        5.31836237       0.74023817       5.01364492       0.00000000 NULL
P        7.07440949       5.04473491       5.93650921       0.00000000 NULL
P        4.97380798       4.85734590       3.27846408       0.00000000 NULL
P        3.58855157       1.21918546       3.87362333       0.00000000 NULL
P        5.78086924       5.60738225       1.42840592       0.00000000 NULL
P        2.23983926       4.96666495       4.14351341       0.00000000 NULL
P        5.97393111       2.64536088       5.69785826       0.00000000 NULL
P        6.62088924       2.00258277       3.72603769       0.00000000 NULL
P        5.44452455       2.17534090       1.22025823       0.00000000 NULL
10
Lattice="6.070881507452442 -0.00398764737198724 -0.04489490116712295 1.2401179101476383 6.1130830406803245 -0.01756733653487754 1.1194346341473915 0.24623848879612428 6.556507846224703" Properties=species:S:1:pos:R:3:initial_magmoms:R:1:castep_labels:S:1 n_minim_iter=5 pbc="T T T"
P        3.17946021       4.38868066       6.22114660       0.00000000 NULL
P        5.35848390       0.74870885       5.01081219       0.00000000 NULL
P        7.13215525       5.04156091       5.94690892       0.00000000 NULL
P        5.01542807       4.86279415       3.28183680       0.00000000 NULL
P        3.61279967       1.21624258       3.87461851       0.00000000 NULL
P        5.83821801       5.61027461       1.42778452       0.00000000 NULL
P        2.26002397       4.96353834       4.15691062       0.00000000 NULL
P        6.02098499       2.65607025       5.70545728       0.00000000 NULL
P        6.68114606       2.00524311       3.72272206       0.00000000 NULL
P        5.49489198       2.17070737       1.21420501       0.00000000 NULL
10
Lattice="6.127657436820855 -0.0009489387700902959 -0.05722144786810153 1.2548876655179355 6.085384332827856 -0.00938717627332301 1.117385651462186 0.2566700615986304 6.542454641523168" Properties=species:S:1:pos:R:3:initial_magmoms:R:1:castep_labels:S:1 n_minim_iter=6 pbc="T T T"
P        3.19773157       4.38240388       6.20429354       0.00000000 NULL
P        5.39748166       0.75863495       4.98618105       0.00000000 NULL
P        7.18996326       5.02540632       5.93507978       0.00000000 NULL
P        5.05623243       4.85588150       3.27412554       0.00000000 NULL
P        3.63653389       1.21049094       3.85956822       0.00000000 NULL
P        5.89471849       5.59714677       1.42564267       0.00000000 NULL
P        2.28187486       4.94605885       4.15596040       0.00000000 NULL
P        6.06753378       2.66226790       5.69024149       0.00000000 NULL
P        6.73995033       2.00409399       3.70606834       0.00000000 NULL
P        5.54326989       2.15943842       1.20524161       0.00000000 NULL
10
Lattice="6.2989390038572575 0.008749257486134818 -0.08138304126806568 1.2999926374740287 5.991242641768282 0.015639330140816983 1.1250662584089173 0.28540387369403614 6.4965507276327426" Properties=species:S:1:pos:R:3:initial_magmoms:R:1:castep_labels:S:1 n_minim_iter=7 pbc="T T T"
P        3.26548748       4.35349692       6.15398229       0.00000000 NULL
P        5.52503147       0.78543203       4.91852987       0.00000000 NULL
P        7.37939111       4.96740087       5.90571923       0.00000000 NULL
P        5.18625872       4.82506937       3.25728154       0.00000000 NULL
P        3.71642860       1.19040596       3.81820606       0.00000000 NULL
P        6.06964874       5.54763819       1.42820714       0.00000000 NULL
P        2.35672022       4.88388231       4.15273187       0.00000000 NULL
P        6.22025605       2.67410626       5.64941891       0.00000000 NULL
P        6.92565531       1.99661357       3.66675840       0.00000000 NULL
P        5.69183614       2.12126221       1.18904761       0.00000000 NULL
10
Lattice="6.567752834308306 0.01782848567283241 -0.05188733002204187 1.3644486145530281 5.80933393827317 0.06863939895925124 1.2084840839634072 0.32784609009728694 6.463586142012043" Properties=species:S:1:pos:R:3:initial_magmoms:R:1:castep_labels:S:1 n_minim_iter=8 pbc="T T T"
P        3.42780503       4.28145291       6.13604073       0.00000000 NULL
P        5.76999559       0.81737611       4.88550975       0.00000000 NULL
P        7.74994910       4.84130550       5.96015133       0.00000000 NULL
P        5.41769826       4.74639054       3.30222463       0.00000000 NULL
P        3.88189633       1.14593923       3.80876579       0.00000000 NULL
P        6.36196340       5.44106558       1.50483699       0.00000000 NULL
P        2.51713001       4.75788891       4.19168562       0.00000000 NULL
P        6.51941189       2.67509836       5.66984012       0.00000000 NULL
P        7.25846465       1.96661805       3.69778197       0.00000000 NULL
P        5.93415190       2.03585045       1.23618304       0.00000000 NULL
10
Lattice="6.775888931066169 -0.016918534219983548 -0.005721427045093057 1.3712752335034346 5.622239151844264 0.16243612092033904 1.2960571942859564 0.4005346798121461 6.529599019887311" Properties=species:S:1:pos:R:3:initial_magmoms:R:1:castep_labels:S:1 n_minim_iter=9 pbc="T T T"
P        3.52140163       4.22758855       6.24287534       0.00000000 NULL
P        5.93321739       0.83624752       4.92686965       0.00000000 NULL
P        8.05899199       4.70064188       6.15203835       0.00000000 NULL
P        5.56474131       4.64858600       3.44432626       0.00000000 NULL
P        4.02036762       1.10312846       3.87523459       0.00000000 NULL
P        6.58091511       5.32587908       1.65604074       0.00000000 NULL
P        2.63611585       4.64433162       4.32530093       0.00000000 NULL
P        6.75337655       2.67588212       5.80458441       0.00000000 NULL
P        7.52278082       1.90789987       3.81727139       0.00000000 NULL
P        6.10051202       1.89630858       1.33587575       0.00000000 NULL
10
Lattice="6.966605354285336 -0.11219164953194173 0.055931510331820554 1.3121174466083294 5.463616632894299 0.30569110764807966 1.3941261290468192 0.510983310778324 6.215140249849989" Properties=species:S:1:pos:R:3:initial_magmoms:R:1:castep_labels:S:1 n_minim_iter=10 pbc="T T T"
P        3.57373722       4.21540699       6.04257167       0.00000000 NULL
P        6.07789766       0.83774275       4.71371524       0.00000000 NULL
P        8.33243366       4.58206916       6.03666846       0.00000000 NULL
P        5.65893905       4.53262811       3.42977487       0.00000000 NULL
P        4.14635243       1.09528789       3.73881835       0.00000000 NULL
P        6.73426497       5.19124796       1.77563231       0.00000000 NULL
P        2.70309300       4.57813162       4.24122391       0.00000000 NULL
P        6.95920180       2.66720294       5.63899530       0.00000000 NULL
P        7.74633714       1.82062429       3.75657751       0.00000000 NULL
P        6.22619455       1.71940717       1.37346178       0.00000000 NULL
10
Lattice="7.168193236958788 -0.07035832317044509 0.057098681634413916 1.3965713126494623 5.638206696329968 0.2715591970192524 1.4359311232835057 0.4905539691836047 6.519551117684727" Properties=species:S:1:pos:R:3:initial_magmoms:R:1:castep_labels:S:1 n_minim_iter=11 pbc="T T T"
P        3.71424347       4.32454279       6.31246489       0.00000000 NULL
P        6.25210941       0.86789370       4.93883786       0.00000000 NULL
P        8.61361837       4.73265619       6.29435553       0.00000000 NULL
P        5.85464887       4.68122497       3.56195913       0.00000000 NULL
P        4.27249080       1.13112867       3.91326770       0.00000000 NULL
P        6.97906761       5.38215835       1.81220827       0.00000000 NULL
P        2.81726552       4.70620999       4.39934708       0.00000000 NULL
P        7.17598702       2.75936626       5.88971347       0.00000000 NULL
P        7.99038451       1.89904913       3.92247699       0.00000000 NULL
P        6.42515464       1.80175820       1.43071157       0.00000000 NULL
10
Lattice="7.085183599960376 -0.07792439178990639 0.05540519234960851 1.371756353681503 5.573716633850731 0.26732888950555733 1.4178445310564731 0.4824665609301274 6.422805196502892" Properties=species:S:1:pos:R:3:initial_magmoms:R:1:castep_labels:S:1 n_minim_iter=12 pbc="T T T"
P        3.66001673       4.27180165       6.21728936       0.00000000 NULL
P        6.17699112       0.85099351       4.86427565       0.00000000 NULL
P        8.51038039       4.66922344       6.19935664       0.00000000 NULL
P        5.77928906       4.62329137       3.50819080       0.00000000 NULL
P        4.22312807       1.11218546       3.85493325       0.00000000 NULL
P        6.89116321       5.31468358       1.78560663       0.00000000 NULL
P        2.77776578       4.65013367       4.33449508       0.00000000 NULL
P        7.08706687       2.72021314       5.80061431       0.00000000 NULL
P        7.89150249       1.86659188       3.86613619       0.00000000 NULL
P        6.34719497       1.77099062       1.40791441       0.00000000 NULL
