24
Lattice="8.72581 3.910339783955673e-16 -8.83765493377092e-16 -2.7288934093863046 8.288118056368889 -1.1563958994370337e-15 -2.7288934093863055 -3.771503304821878 7.380288865486614" Properties=species:S:1:pos:R:3:initial_magmoms:R:1:castep_labels:S:1 n_minim_iter=1 pbc="T T T"
P        1.47972478       0.08447909       6.08737813       0.00000000 NULL
P       -0.38252477       4.76900968       4.04513486       0.00000000 NULL
P        4.64942334       3.08870816       2.84528366       0.00000000 NULL
P        2.03326143       1.91630431       5.39005818       0.00000000 NULL
P        1.18430297       3.64812867       4.70613271       0.00000000 NULL
P        3.09475964       3.15959810       4.15914704       0.00000000 NULL
P        6.03006233       2.15548928       1.59411509       0.00000000 NULL
P        0.16153828      -1.49358174       6.42589353       0.00000000 NULL
P       -1.46918194       5.86477375       2.64479147       0.00000000 NULL
P        2.77454700       1.86354841       2.56433967       0.00000000 NULL
P        0.90236508       0.81902834       4.03257877       0.00000000 NULL
P        0.49574142       3.08429431       2.82632813       0.00000000 NULL
P       -1.47383617       2.75554303       3.10896366       0.00000000 NULL
P        3.07824807       3.01330925       0.93553280       0.00000000 NULL
P        1.89947432      -0.92625991       3.86845000       0.00000000 NULL
P       -2.35439476       4.41215330       3.85850653       0.00000000 NULL
P        4.92714600       3.82559591       0.99317285       0.00000000 NULL
P        2.09279532      -1.78966877       5.68468448       0.00000000 NULL
P        0.92764280       5.59173435       0.43176387       0.00000000 NULL
P        5.02114029      -0.81224522       2.53827544       0.00000000 NULL
P       -2.34180447       0.20558346       5.17572426       0.00000000 NULL
P       -0.84483325       2.21414965       0.66004802       0.00000000 NULL
P        2.36729813       0.63780901       0.20239704       0.00000000 NULL
P       -0.13452823      -0.93374246       2.27197987       0.00000000 NULL
24
Lattice="8.78635129789832 -0.0016536416826997094 -0.0027021018992507764 -2.749397675044114 8.34510540910493 -0.0027021018992512305 -2.749397675044115 -3.799841496934982 7.429804586164965" Properties=species:S:1:pos:R:3:initial_magmoms:R:1:castep_labels:S:1 n_minim_iter=2 pbc="T T T"
P        1.48810150       0.08238739       6.12587209       0.00000000 NULL
P       -0.38713127       4.79996430       4.06915404       0.00000000 NULL
P        4.68026588       3.10768228       2.86093773       0.00000000 NULL
P        2.04547526       1.92667067       5.42340875       0.00000000 NULL
P        1.19032961       3.67107187       4.73452617       0.00000000 NULL
P        3.11466723       3.17901158       4.18355408       0.00000000 NULL
P        6.07099457       2.16789379       1.60119849       0.00000000 NULL
P        0.16051951      -1.50673140       6.46719175       0.00000000 NULL
P       -1.48135340       5.90386010       2.65906057       0.00000000 NULL
P        2.79262671       1.87416985       2.57901480       0.00000000 NULL
P        0.90679953       0.82277001       4.05750638       0.00000000 NULL
P        0.49790859       3.10404235       2.84246407       0.00000000 NULL
P       -1.48560276       2.77296696       3.12817879       0.00000000 NULL
P        3.09847787       3.03302586       0.93917672       0.00000000 NULL
P        1.91187530      -0.93456483       3.89270926       0.00000000 NULL
P       -2.37331044       4.44109322       3.88227606       0.00000000 NULL
P        4.96054993       3.85081920       0.99604956       0.00000000 NULL
P        2.10630671      -1.80513470       5.72127081       0.00000000 NULL
P        0.93290984       5.62945921       0.43182954       0.00000000 NULL
P        5.05532565      -0.81983195       2.55326591       0.00000000 NULL
P       -2.35970171       0.20523592       5.20934686       0.00000000 NULL
P       -0.85119673       2.22913471       0.66353222       0.00000000 NULL
P        2.38352163       0.64152948       0.20277338       0.00000000 NULL
P       -0.13606809      -0.94094899       2.28690904       0.00000000 NULL
24
Lattice="9.391631734807957 -0.018748339591683025 -0.03063536952924004 -2.954929158026299 8.914678447007239 -0.03063536952924122 -2.9549291580263 -4.083899007076639 7.924279099034815" Properties=species:S:1:pos:R:3:initial_magmoms:R:1:castep_labels:S:1 n_minim_iter=3 pbc="T T T"
P        1.57117002       0.06053082       6.50951442       0.00000000 NULL
P       -0.43387019       5.10879106       4.30790292       0.00000000 NULL
P        4.98821875       3.29653222       3.01605141       0.00000000 NULL
P        2.16691307       2.02935652       5.75540073       0.00000000 NULL
P        1.24988645       3.89959782       5.01690725       0.00000000 NULL
P        3.31310449       3.37219866       4.42606512       0.00000000 NULL
P        6.47998932       2.29100331       1.67058973       0.00000000 NULL
P        0.14954552      -1.63923802       6.87897977       0.00000000 NULL
P       -1.60378142       6.29414381       2.80026187       0.00000000 NULL
P        2.97303725       1.97950728       2.72462475       0.00000000 NULL
P        0.95043192       0.85946229       4.30569197       0.00000000 NULL
P        0.51911486       3.30096254       3.00252321       0.00000000 NULL
P       -1.60378804       2.94657649       3.31946761       0.00000000 NULL
P        3.30034009       3.22973798       0.97460875       0.00000000 NULL
P        2.03559021      -1.01825782       4.13434854       0.00000000 NULL
P       -2.56330128       4.72990251       4.11894735       0.00000000 NULL
P        5.29428975       4.10258473       1.02348085       0.00000000 NULL
P        2.24107037      -1.96078745       6.08614285       0.00000000 NULL
P        0.98517587       6.00621805       0.43151935       0.00000000 NULL
P        5.39684046      -0.89631584       2.70225218       0.00000000 NULL
P       -2.53915382       0.20117682       5.54469671       0.00000000 NULL
P       -0.91502902       2.37889826       0.69810288       0.00000000 NULL
P        2.54573574       0.67859027       0.20622195       0.00000000 NULL
P       -0.15159683      -1.01326513       2.43599978       0.00000000 NULL
24
Lattice="9.574385731418433 -0.03185341802957292 -0.05204947495927676 -3.024531018956177 9.084166934265408 -0.05204947495927799 -3.0245310189561785 -4.18009318146831 8.065458389433713" Properties=species:S:1:pos:R:3:initial_magmoms:R:1:castep_labels:S:1 n_minim_iter=4 pbc="T T T"
P        1.58678096       0.04015535       6.60711576       0.00000000 NULL
P       -0.45810575       5.19185400       4.35984587       0.00000000 NULL
P        5.07469458       3.34144006       3.04232118       0.00000000 NULL
P        2.19391383       2.04664343       5.83387180       0.00000000 NULL
P        1.25786207       3.95534316       5.08026681       0.00000000 NULL
P        3.36355932       3.41723777       4.47716674       0.00000000 NULL
P        6.60010467       2.31726282       1.67257254       0.00000000 NULL
P        0.13692319      -1.69312614       6.98878842       0.00000000 NULL
P       -1.65101899       6.40504926       2.82454735       0.00000000 NULL
P        3.02260370       2.00205880       2.75294408       0.00000000 NULL
P        0.95635093       0.86004657       4.36678217       0.00000000 NULL
P        0.51781873       3.35271981       3.03549127       0.00000000 NULL
P       -1.64668897       2.99195680       3.36533579       0.00000000 NULL
P        3.35686085       3.28266671       0.97183307       0.00000000 NULL
P        2.06818781      -1.05269145       4.19563046       0.00000000 NULL
P       -2.63060811       4.80890629       4.17484439       0.00000000 NULL
P        5.39038007       4.17020764       1.01398985       0.00000000 NULL
P        2.27525017      -2.02039490       6.18192896       0.00000000 NULL
P        0.99513819       6.11452253       0.41760879       0.00000000 NULL
P        5.49659672      -0.92842162       2.73450924       0.00000000 NULL
P       -2.60084674       0.19135262       5.63480819       0.00000000 NULL
P       -0.93736425       2.42288281       0.70440701       0.00000000 NULL
P        2.59449907       0.68759821       0.20244845       0.00000000 NULL
P       -0.15829089      -1.03898392       2.47803522       0.00000000 NULL
24
Lattice="9.64283761762962 -0.04296228816244228 -0.07020171398335502 -3.056490175558931 9.145711065023256 -0.07020171398335547 -3.056490175558931 -4.224262757433431 8.11200119093285" Properties=species:S:1:pos:R:3:initial_magmoms:R:1:castep_labels:S:1 n_minim_iter=5 pbc="T T T"
P        1.58505369       0.02188961       6.62961309       0.00000000 NULL
P       -0.47491509       5.21523310       4.36353565       0.00000000 NULL
P        5.10215789       3.34866397       3.03629355       0.00000000 NULL
P        2.19661855       2.04258264       5.84641401       0.00000000 NULL
P        1.25315910       3.96592042       5.08713093       0.00000000 NULL
P        3.37507682       3.42387750       4.47925807       0.00000000 NULL
P        6.64297064       2.31810703       1.65777919       0.00000000 NULL
P        0.12431924      -1.72494696       7.01854784       0.00000000 NULL
P       -1.67730192       6.44152521       2.81856739       0.00000000 NULL
P        3.03765323       2.00317601       2.75097954       0.00000000 NULL
P        0.95270553       0.85163345       4.37892822       0.00000000 NULL
P        0.51096767       3.36630836       3.03559215       0.00000000 NULL
P       -1.66834032       3.00325211       3.37331406       0.00000000 NULL
P        3.37436078       3.29752187       0.96029641       0.00000000 NULL
P        2.07682493      -1.07264240       4.20931906       0.00000000 NULL
P       -2.66380192       4.83228465       4.18380577       0.00000000 NULL
P        5.42296672       4.18920760       0.99650287       0.00000000 NULL
P        2.28310599      -2.05275511       6.20682447       0.00000000 NULL
P        0.99418808       6.15069583       0.40178157       0.00000000 NULL
P        5.53125268      -0.94725244       2.73657712       0.00000000 NULL
P       -2.62957123       0.18089470       5.65981713       0.00000000 NULL
P       -0.94823336       2.43852503       0.70394711       0.00000000 NULL
P        2.61275585       0.68966051       0.19740217       0.00000000 NULL
P       -0.16204162      -1.05166197       2.49175481       0.00000000 NULL
24
Lattice="9.658768974990144 -0.052375218807136394 -0.08558273517955951 -3.0704132906099524 9.157899513568768 -0.08558273517955986 -3.070413290609952 -4.243505383124755 8.115855467452285" Properties=species:S:1:pos:R:3:initial_magmoms:R:1:castep_labels:S:1 n_minim_iter=6 pbc="T T T"
P        1.57623039       0.00593044       6.61947993       0.00000000 NULL
P       -0.48731435       5.21229467       4.34701747       0.00000000 NULL
P        5.10324458       3.33973251       3.01747136       0.00000000 NULL
P        2.18913916       2.03016038       5.83080363       0.00000000 NULL
P        1.24369905       3.95702050       5.07024198       0.00000000 NULL
P        3.36958185       3.41419389       4.46109298       0.00000000 NULL
P        6.65078619       2.30822091       1.63686344       0.00000000 NULL
P        0.11248479      -1.74554288       7.01288742       0.00000000 NULL
P       -1.69316366       6.44453096       2.80024643       0.00000000 NULL
P        3.03741562       1.99527118       2.73645385       0.00000000 NULL
P        0.94527152       0.83992646       4.36991598       0.00000000 NULL
P        0.50217281       3.36316247       3.02194325       0.00000000 NULL
P       -1.67949130       2.99952482       3.36511666       0.00000000 NULL
P        3.37430779       3.29557252       0.94609671       0.00000000 NULL
P        2.07498994      -1.08498644       4.20226981       0.00000000 NULL
P       -2.68034326       4.83097789       4.17277026       0.00000000 NULL
P        5.42689862       4.18671639       0.97712660       0.00000000 NULL
P        2.27951008      -2.07135395       6.20063914       0.00000000 NULL
P        0.98882714       6.15419397       0.38644806       0.00000000 NULL
P        5.53625193      -0.95908711       2.72603950       0.00000000 NULL
P       -2.64237572       0.17103472       5.65595460       0.00000000 NULL
P       -0.95356531       2.44139139       0.70093122       0.00000000 NULL
P        2.61714594       0.68887164       0.19231826       0.00000000 NULL
P       -0.16416387      -1.05797425       2.49293483       0.00000000 NULL
24
Lattice="9.670630758953337 -0.06706969492734242 -0.10959396581572672 -3.0880803148680407 9.16457078039755 -0.10959396581572771 -3.088080314868041 -4.267922328156967 8.110869708427021" Properties=species:S:1:pos:R:3:initial_magmoms:R:1:castep_labels:S:1 n_minim_iter=7 pbc="T T T"
P        1.55987282      -0.01905936       6.59504658       0.00000000 NULL
P       -0.50593502       5.20116407       4.31510462       0.00000000 NULL
P        5.09849569       3.32094751       2.98410040       0.00000000 NULL
P        2.17466411       2.00838591       5.79838332       0.00000000 NULL
P        1.22754370       3.93750654       5.03718233       0.00000000 NULL
P        3.35609911       3.39451517       4.42695071       0.00000000 NULL
P        6.65473668       2.28887028       1.60046759       0.00000000 NULL
P        0.09286933      -1.77690584       6.99427801       0.00000000 NULL
P       -1.71681893       6.44090149       2.76645344       0.00000000 NULL
P        3.03345073       1.97985014       2.70905142       0.00000000 NULL
P        0.93186399       0.81943383       4.34979853       0.00000000 NULL
P        0.48690115       3.35395994       2.99574188       0.00000000 NULL
P       -1.69457281       2.98934792       3.34790806       0.00000000 NULL
P        3.36935793       3.28821573       0.92267591       0.00000000 NULL
P        2.06955017      -1.10265546       4.18537686       0.00000000 NULL
P       -2.70274150       4.82268825       4.15004637       0.00000000 NULL
P        5.42602957       4.17734229       0.94553315       0.00000000 NULL
P        2.27087798      -2.09777718       6.18291700       0.00000000 NULL
P        0.97894470       6.15099924       0.36213034       0.00000000 NULL
P        5.53630806      -0.97601515       2.70572549       0.00000000 NULL
P       -2.65847219       0.15533057       5.64204403       0.00000000 NULL
P       -0.96079203       2.44306386       0.69606823       0.00000000 NULL
P        2.62099459       0.68742686       0.18445875       0.00000000 NULL
P       -0.16673980      -1.06643075       2.49221120       0.00000000 NULL
24
Lattice="9.681824046134622 -0.08457330131897764 -0.13819540261389546 -3.1082064972860017 9.169728560531968 -0.13819540261389612 -3.1082064972860017 -4.295737985317376 8.102447470032791" Properties=species:S:1:pos:R:3:initial_magmoms:R:1:castep_labels:S:1 n_minim_iter=8 pbc="T T T"
P        1.53852018      -0.04855251       6.56568558       0.00000000 NULL
P       -0.52727099       5.18844542       4.27547053       0.00000000 NULL
P        5.09308758       3.29668661       2.94447705       0.00000000 NULL
P        2.15770030       1.98352486       5.75823183       0.00000000 NULL
P        1.20923492       3.91262317       4.99764005       0.00000000 NULL
P        3.33818976       3.37075879       4.38654187       0.00000000 NULL
P        6.65973583       2.26235537       1.55157143       0.00000000 NULL
P        0.06612100      -1.81883360       6.96887218       0.00000000 NULL
P       -1.74827834       6.43580651       2.72059264       0.00000000 NULL
P        3.02959164       1.95936068       2.67229786       0.00000000 NULL
P        0.91360918       0.79128991       4.32410386       0.00000000 NULL
P        0.46587792       3.34297508       2.96077203       0.00000000 NULL
P       -1.71162408       2.97524091       3.32730888       0.00000000 NULL
P        3.36129112       3.27925040       0.89495175       0.00000000 NULL
P        2.06355735      -1.12258036       4.16344140       0.00000000 NULL
P       -2.72924726       4.81254376       4.12280265       0.00000000 NULL
P        5.42468330       4.16598278       0.90789228       0.00000000 NULL
P        2.26050930      -2.12909663       6.16148644       0.00000000 NULL
P        0.96643905       6.14419698       0.33392079       0.00000000 NULL
P        5.53375800      -0.99476152       2.68041716       0.00000000 NULL
P       -2.67548073       0.13656438       5.62315011       0.00000000 NULL
P       -0.96947827       2.44611936       0.69289167       0.00000000 NULL
P        2.62661334       0.68791781       0.17651734       0.00000000 NULL
P       -0.16803067      -1.07600073       2.49348653       0.00000000 NULL
24
Lattice="9.68097855461208 -0.10021618059182333 -0.1637563534747127 -3.122800302779282 9.16403335473377 -0.16375635347471323 -3.1228003027792814 -4.315907547623663 8.08574458601937" Properties=species:S:1:pos:R:3:initial_magmoms:R:1:castep_labels:S:1 n_minim_iter=9 pbc="T T T"
P        1.51380002      -0.07446138       6.53646642       0.00000000 NULL
P       -0.54414931       5.17679851       4.23405088       0.00000000 NULL
P        5.08730338       3.26875652       2.90810991       0.00000000 NULL
P        2.14261185       1.96331569       5.71639473       0.00000000 NULL
P        1.19475819       3.88476622       4.96021240       0.00000000 NULL
P        3.31625756       3.34765227       4.34950834       0.00000000 NULL
P        6.66163047       2.22949892       1.49343373       0.00000000 NULL
P        0.03432012      -1.86674632       6.93486919       0.00000000 NULL
P       -1.78384238       6.42609162       2.66487955       0.00000000 NULL
P        3.02705966       1.93485687       2.62802731       0.00000000 NULL
P        0.89112634       0.75645002       4.29499314       0.00000000 NULL
P        0.43981686       3.33172869       2.91880693       0.00000000 NULL
P       -1.72421701       2.95657179       3.30769624       0.00000000 NULL
P        3.34749675       3.26988580       0.87017690       0.00000000 NULL
P        2.05897651      -1.13734658       4.13789246       0.00000000 NULL
P       -2.75115541       4.80109534       4.09623699       0.00000000 NULL
P        5.42066065       4.15342542       0.87408550       0.00000000 NULL
P        2.24983986      -2.15567468       6.13920332       0.00000000 NULL
P        0.95308966       6.12839777       0.31044539       0.00000000 NULL
P        5.52292615      -1.00764723       2.65404398       0.00000000 NULL
P       -2.68433256       0.11959552       5.59839899       0.00000000 NULL
P       -0.97657434       2.45083555       0.69607995       0.00000000 NULL
P        2.63331218       0.69315279       0.17327969       0.00000000 NULL
P       -0.16515326      -1.08252414       2.49913697       0.00000000 NULL
24
Lattice="9.791346716793464 -0.17392107411612712 -0.2841924399979154 -3.227324445437027 9.245815052896551 -0.28419243999791666 -3.227324445437027 -4.460366524332472 8.1037640515957" Properties=species:S:1:pos:R:3:initial_magmoms:R:1:castep_labels:S:1 n_minim_iter=10 pbc="T T T"
P        1.42120454      -0.19913345       6.46789252       0.00000000 NULL
P       -0.63360962       5.17349999       4.08981011       0.00000000 NULL
P        5.11214797       3.17945129       2.76588914       0.00000000 NULL
P        2.09323142       1.88184277       5.58753034       0.00000000 NULL
P        1.13281514       3.80295476       4.83711797       0.00000000 NULL
P        3.25792177       3.27645680       4.21831979       0.00000000 NULL
P        6.72791156       2.12531067       1.27661546       0.00000000 NULL
P       -0.08537060      -2.07363676       6.86325207       0.00000000 NULL
P       -1.94292323       6.44349503       2.47344042       0.00000000 NULL
P        3.03963916       1.85268190       2.47484840       0.00000000 NULL
P        0.80913922       0.62630666       4.21304459       0.00000000 NULL
P        0.34184206       3.31271394       2.77592892       0.00000000 NULL
P       -1.80853643       2.91084596       3.25269259       0.00000000 NULL
P        3.33043444       3.26385908       0.76109632       0.00000000 NULL
P        2.05858813      -1.22624674       4.07214578       0.00000000 NULL
P       -2.87907712       4.79751394       4.01167553       0.00000000 NULL
P        5.45726490       4.13392678       0.72641233       0.00000000 NULL
P        2.21987174      -2.30021900       6.09753456       0.00000000 NULL
P        0.90514388       6.13450081       0.20003343       0.00000000 NULL
P        5.54371753      -1.08611057       2.56494814       0.00000000 NULL
P       -2.76536239       0.04243838       5.55359064       0.00000000 NULL
P       -1.01369454       2.49174760       0.69665019       0.00000000 NULL
P        2.68378096       0.70388255       0.15353622       0.00000000 NULL
P       -0.17074522      -1.12344581       2.53582725       0.00000000 NULL
24
Lattice="9.519433641409112 -0.14834531646763086 -0.24240085719025373 -3.1179939995398387 8.995539817317413 -0.242400857190255 -3.1179939995398396 -4.309264932529506 7.899919652868697" Properties=species:S:1:pos:R:3:initial_magmoms:R:1:castep_labels:S:1 n_minim_iter=11 pbc="T T T"
P        1.40129580      -0.15832108       6.34143238       0.00000000 NULL
P       -0.58861820       5.06368849       4.02679122       0.00000000 NULL
P        4.99377415       3.11951615       2.74468556       0.00000000 NULL
P        2.06348678       1.87085683       5.48857526       0.00000000 NULL
P        1.13168255       3.72925837       4.76387111       0.00000000 NULL
P        3.18827624       3.22221032       4.16350773       0.00000000 NULL
P        6.55229799       2.08991426       1.27848884       0.00000000 NULL
P       -0.06407046      -1.99102689       6.70571333       0.00000000 NULL
P       -1.87111849       6.28224936       2.44277359       0.00000000 NULL
P        2.97229530       1.82286382       2.43788554       0.00000000 NULL
P        0.80187782       0.62674355       4.13096142       0.00000000 NULL
P        0.34452796       3.24269802       2.73255699       0.00000000 NULL
P       -1.74021138       2.84585145       3.19606485       0.00000000 NULL
P        3.24733225       3.19315173       0.77501736       0.00000000 NULL
P        2.01741672      -1.16786931       3.98850194       0.00000000 NULL
P       -2.77077879       4.68858374       3.94221420       0.00000000 NULL
P        5.31992968       4.04076669       0.75606752       0.00000000 NULL
P        2.17433458      -2.20119476       5.96892756       0.00000000 NULL
P        0.89469101       5.97529211       0.23305490       0.00000000 NULL
P        5.39576385      -1.02953089       2.52679663       0.00000000 NULL
P       -2.66535002       0.06436293       5.42684708       0.00000000 NULL
P       -0.97608883       2.43246432       0.69405420       0.00000000 NULL
P        2.61571063       0.69375351       0.16765245       0.00000000 NULL
P       -0.15907800      -1.08001269       2.48185619       0.00000000 NULL
24
Lattice="9.710374599005414 -0.15536260874643046 -0.25386733084806357 -3.1843738161539052 9.174708485407013 -0.25386733084806495 -3.1843738161539066 -4.401006037869975 8.054245481018283" Properties=species:S:1:pos:R:3:initial_magmoms:R:1:castep_labels:S:1 n_minim_iter=12 pbc="T T T"
P        1.42350128      -0.16830560       6.46019834       0.00000000 NULL
P       -0.60504639       5.16126873       4.09683648       0.00000000 NULL
P        5.09159743       3.17510297       2.78983907       0.00000000 NULL
P        2.10089013       1.90173610       5.58893521       0.00000000 NULL
P        1.14931544       3.79806442       4.84977494       0.00000000 NULL
P        3.24811646       3.28129153       4.23667342       0.00000000 NULL
P        6.68071110       2.12524241       1.29324558       0.00000000 NULL
P       -0.07067406      -2.03841732       6.83087844       0.00000000 NULL
P       -1.91406658       6.40330309       2.48094716       0.00000000 NULL
P        3.02928562       1.85308346       2.47863719       0.00000000 NULL
P        0.81275859       0.63409834       4.20612349       0.00000000 NULL
P        0.34811100       3.30387771       2.77801058       0.00000000 NULL
P       -1.77942809       2.89838625       3.25539542       0.00000000 NULL
P        3.30949643       3.25545769       0.78347626       0.00000000 NULL
P        2.05715627      -1.19607264       4.06228074       0.00000000 NULL
P       -2.83223490       4.77919610       4.01413977       0.00000000 NULL
P        5.42521654       4.11848162       0.76205162       0.00000000 NULL
P        2.21522407      -2.25243333       6.08234449       0.00000000 NULL
P        0.90972420       6.09225603       0.23082895       0.00000000 NULL
P        5.50215933      -1.05465601       2.57107122       0.00000000 NULL
P       -2.72248878       0.06137687       5.52998657       0.00000000 NULL
P       -0.99594666       2.48117967       0.70487040       0.00000000 NULL
P        2.66819268       0.70503525       0.16934499       0.00000000 NULL
P       -0.16477530      -1.10279506       2.53015747       0.00000000 NULL
