10
Lattice="5.349169999999998 -8.98692762121148e-16 6.153392518597275e-16 0.5737353608874942 6.408026898450667 -1.0174145686961518e-15 2.4041814492621145 1.3774271703639311 6.595943552932146" Properties=species:S:1:pos:R:3:initial_magmoms:R:1:castep_labels:S:1 n_minim_iter=1 pbc="T T T"
P        6.25734558       4.77012245       5.07670977       0.00000000 NULL
P        1.25329635       6.01597869       1.62294774       0.00000000 NULL
P        4.32315002       2.93798509       1.86683078       0.00000000 NULL
P        4.74952512       6.65287596       2.19042447       0.00000000 NULL
P        5.86399572       7.55825730       6.04733584       0.00000000 NULL
P        4.82109264       1.23200073       3.87789571       0.00000000 NULL
P        4.10394250       4.33172877       0.37996263       0.00000000 NULL
P        7.08396075       6.46783042       3.71240942       0.00000000 NULL
P        6.16696610       3.24313271       6.44548744       0.00000000 NULL
P        7.86878991       7.42248146       5.62232688       0.00000000 NULL
10
Lattice="5.356230300244364 -0.0012398028354243648 0.0009908417801182345 0.5730074075770749 6.418717159577606 -0.0011200618179592003 2.408257229469859 1.3779341346113898 6.6083713926656475" Properties=species:S:1:pos:R:3:initial_magmoms:R:1:castep_labels:S:1 n_minim_iter=2 pbc="T T T"
P        6.26536832       4.77575936       5.08620071       0.00000000 NULL
P        1.25404959       6.02542925       1.62486123       0.00000000 NULL
P        4.32850731       2.94143786       1.87065843       0.00000000 NULL
P        4.75431316       6.66250116       2.19393552       0.00000000 NULL
P        5.87074254       7.56868985       6.05837194       0.00000000 NULL
P        4.82780286       1.23243131       3.88591100       0.00000000 NULL
P        4.10848594       4.33813381       0.38049299       0.00000000 NULL
P        7.09276053       6.47632492       3.71931717       0.00000000 NULL
P        6.17557768       3.24582732       6.45817319       0.00000000 NULL
P        7.87882945       7.43216044       5.63284391       0.00000000 NULL
10
Lattice="5.547773594289951 -0.035722218347156755 0.028272030311121892 0.5522436096069392 6.709275477368358 -0.03305125727667934 2.5191067627351504 1.389808042916463 6.944672458158923" Properties=species:S:1:pos:R:3:initial_magmoms:R:1:castep_labels:S:1 n_minim_iter=3 pbc="T T T"
P        6.48255678       4.92691424       5.34233509       0.00000000 NULL
P        1.27373591       6.28170429       1.67507033       0.00000000 NULL
P        4.47353581       3.03406517       1.97392126       0.00000000 NULL
P        4.88309721       6.92300438       2.28742177       0.00000000 NULL
P        6.05279165       7.85028292       6.35582320       0.00000000 NULL
P        5.00990779       1.24264947       4.10310341       0.00000000 NULL
P        4.23111613       4.51164133       0.39387216       0.00000000 NULL
P        7.33091616       6.70530120       3.90524377       0.00000000 NULL
P        6.40929478       3.31658030       6.80162902       0.00000000 NULL
P        8.15062973       7.69280428       5.91644623       0.00000000 NULL
10
Lattice="5.608465855649097 -0.05265615006038843 0.029130676152228085 0.5384673053502148 6.775763724128004 -0.0623583191564125 2.5430831049958083 1.3666180936337224 6.965444802688445" Properties=species:S:1:pos:R:3:initial_magmoms:R:1:castep_labels:S:1 n_minim_iter=4 pbc="T T T"
P        6.53803227       4.93396802       5.34191713       0.00000000 NULL
P        1.27081144       6.33318821       1.65258634       0.00000000 NULL
P        4.51284291       3.03982716       1.96687524       0.00000000 NULL
P        4.91187842       6.96803664       2.26367942       0.00000000 NULL
P        6.09138307       7.88875347       6.34912906       0.00000000 NULL
P        5.06113077       1.22470052       4.11532633       0.00000000 NULL
P        4.26557475       4.54298881       0.37237990       0.00000000 NULL
P        7.39469051       6.73481041       3.89134659       0.00000000 NULL
P        6.47193425       3.30163449       6.81936834       0.00000000 NULL
P        8.22051053       7.72153895       5.90755779       0.00000000 NULL
10
Lattice="5.642461903329059 -0.06699884863542754 0.030464746000597204 0.5249318103891628 6.809585597603753 -0.09496899943304007 2.556314334117768 1.3340582976055728 6.93313238693359" Properties=species:S:1:pos:R:3:initial_magmoms:R:1:castep_labels:S:1 n_minim_iter=5 pbc="T T T"
P        6.56488884       4.91624668       5.29987252       0.00000000 NULL
P        1.26380442       6.35368299       1.61440001       0.00000000 NULL
P        4.53171580       3.03075343       1.94175877       0.00000000 NULL
P        4.92051306       6.97969809       2.21858420       0.00000000 NULL
P        6.10495777       7.88924948       6.29115463       0.00000000 NULL
P        5.09036566       1.20038911       4.09645933       0.00000000 NULL
P        4.28232703       4.55330479       0.34487202       0.00000000 NULL
P        7.42632117       6.73315046       3.84546714       0.00000000 NULL
P        6.50687613       3.27034694       6.78627826       0.00000000 NULL
P        8.25405450       7.71295877       5.85110213       0.00000000 NULL
10
Lattice="5.661327175454148 -0.08375122995600565 0.0413684287492072 0.506886761081617 6.8392377857173985 -0.13129062556216922 2.5739246228182724 1.2946984621576183 6.876627617207634" Properties=species:S:1:pos:R:3:initial_magmoms:R:1:castep_labels:S:1 n_minim_iter=6 pbc="T T T"
P        6.57999008       4.88721964       5.24455972       0.00000000 NULL
P        1.25255526       6.36828968       1.56614151       0.00000000 NULL
P        4.53924083       3.01341296       1.91038750       0.00000000 NULL
P        4.91439119       6.98204085       2.16451741       0.00000000 NULL
P        6.10686610       7.88224568       6.21520118       0.00000000 NULL
P        5.11464947       1.17112784       4.07052598       0.00000000 NULL
P        4.28818524       4.55840089       0.31714051       0.00000000 NULL
P        7.44273451       6.72250322       3.79244462       0.00000000 NULL
P        6.53705450       3.23071604       6.74031692       0.00000000 NULL
P        8.27181427       7.69237033       5.78150754       0.00000000 NULL
10
Lattice="5.650223538501979 -0.09621088885058966 0.06834881722666414 0.4907697974225961 6.859868943455277 -0.13297281742443764 2.598994622231054 1.2891102559718437 6.872862418152632" Properties=species:S:1:pos:R:3:initial_magmoms:R:1:castep_labels:S:1 n_minim_iter=7 pbc="T T T"
P        6.57852163       4.88038095       5.26047739       0.00000000 NULL
P        1.24263217       6.38309782       1.56059039       0.00000000 NULL
P        4.52982987       3.00344307       1.91588701       0.00000000 NULL
P        4.89294058       6.98825506       2.16950652       0.00000000 NULL
P        6.09967508       7.90182270       6.23284549       0.00000000 NULL
P        5.12684088       1.16425690       4.08916558       0.00000000 NULL
P        4.27682193       4.56276977       0.32682009       0.00000000 NULL
P        7.43553035       6.72738872       3.81588135       0.00000000 NULL
P        6.55612008       3.22586372       6.76899813       0.00000000 NULL
P        8.26749805       7.69604521       5.80790626       0.00000000 NULL
10
Lattice="5.612897972544232 -0.12462842543870306 0.09527581057580228 0.4527236452346063 6.843586299567619 -0.12029040333422317 2.608104149112979 1.2835747018607824 6.827123439527874" Properties=species:S:1:pos:R:3:initial_magmoms:R:1:castep_labels:S:1 n_minim_iter=8 pbc="T T T"
P        6.53064634       4.83766518       5.25148485       0.00000000 NULL
P        1.20763435       6.36397170       1.55599754       0.00000000 NULL
P        4.48894608       2.96480567       1.91043566       0.00000000 NULL
P        4.82600945       6.94824174       2.17239402       0.00000000 NULL
P        6.03753333       7.88157542       6.22971377       0.00000000 NULL
P        5.11420714       1.14448056       4.08440652       0.00000000 NULL
P        4.23507841       4.53194055       0.34078059       0.00000000 NULL
P        7.37563887       6.68484871       3.82830873       0.00000000 NULL
P        6.53861465       3.20144000       6.76681611       0.00000000 NULL
P        8.20229564       7.64722858       5.81452897       0.00000000 NULL
10
Lattice="5.611949870138964 -0.1406793720597467 0.11250047612124967 0.43339375712693584 6.87750736632112 -0.10709402529867916 2.624784213768854 1.2957038429414278 6.882390347344028" Properties=species:S:1:pos:R:3:initial_magmoms:R:1:castep_labels:S:1 n_minim_iter=9 pbc="T T T"
P        6.52929896       4.85146963       5.31239028       0.00000000 NULL
P        1.19386401       6.39517284       1.57898343       0.00000000 NULL
P        4.48384733       2.96604456       1.93805668       0.00000000 NULL
P        4.80794629       6.97332008       2.21008238       0.00000000 NULL
P        6.02780803       7.92417744       6.30836982       0.00000000 NULL
P        5.12511645       1.14469241       4.13027242       0.00000000 NULL
P        4.22586389       4.54530000       0.36037264       0.00000000 NULL
P        7.36955765       6.70719311       3.88766362       0.00000000 NULL
P        6.55261966       3.21379010       6.84464133       0.00000000 NULL
P        8.19808306       7.67440433       5.89456570       0.00000000 NULL
10
Lattice="5.596038650914703 -0.1501646888803207 0.1143388149870131 0.420324253927311 6.861774596738339 -0.10379289945553173 2.6174572430775993 1.291472521824111 6.855056997548221" Properties=species:S:1:pos:R:3:initial_magmoms:R:1:castep_labels:S:1 n_minim_iter=10 pbc="T T T"
P        6.50298392       4.83067427       5.29431061       0.00000000 NULL
P        1.17931760       6.37954605       1.57453686       0.00000000 NULL
P        4.46561432       2.95002045       1.93020948       0.00000000 NULL
P        4.78130201       6.95034064       2.20393219       0.00000000 NULL
P        5.99672425       7.90293450       6.28968410       0.00000000 NULL
P        5.11155179       1.13486945       4.11590234       0.00000000 NULL
P        4.20778029       4.52828188       0.35988672       0.00000000 NULL
P        7.33922887       6.68237103       3.87693469       0.00000000 NULL
P        6.53278124       3.19950874       6.82397147       0.00000000 NULL
P        8.16346087       7.64551045       5.87758018       0.00000000 NULL
10
Lattice="5.587354884873827 -0.1601249080193292 0.11981476051016665 0.40746103668042033 6.863193871649964 -0.09803836559203914 2.617741810941326 1.2928493502259817 6.85627028871821" Properties=species:S:1:pos:R:3:initial_magmoms:R:1:castep_labels:S:1 n_minim_iter=11 pbc="T T T"
P        6.48798014       4.82366150       5.30187065       0.00000000 NULL
P        1.16715334       6.38032162       1.57905631       0.00000000 NULL
P        4.45429135       2.94189820       1.93409793       0.00000000 NULL
P        4.76159974       6.94537225       2.21163821       0.00000000 NULL
P        5.97664656       7.90366318       6.30198464       0.00000000 NULL
P        5.10700960       1.12942693       4.12095226       0.00000000 NULL
P        4.19514984       4.52294087       0.36513565       0.00000000 NULL
P        7.32066292       6.67543436       3.88790480       0.00000000 NULL
P        6.52541868       3.19526954       6.83459599       0.00000000 NULL
P        8.14305549       7.63769183       5.89110241       0.00000000 NULL
10
Lattice="5.484489018913452 -0.27730062584103804 0.17967824387410264 0.25605755980894873 6.875777301017113 -0.030170905616268565 2.615152050849887 1.30883977921513 6.860526287930854" Properties=species:S:1:pos:R:3:initial_magmoms:R:1:castep_labels:S:1 n_minim_iter=12 pbc="T T T"
P        6.30679609       4.73978274       5.37968055       0.00000000 NULL
P        1.02245904       6.38620388       1.63061945       0.00000000 NULL
P        4.32008905       2.84551872       1.97572002       0.00000000 NULL
P        4.52858702       6.88391811       2.29756924       0.00000000 NULL
P        5.73530077       7.90788581       6.43391030       0.00000000 NULL
P        5.04895717       1.06360186       4.17102905       0.00000000 NULL
P        4.04430542       4.45683796       0.42388345       0.00000000 NULL
P        7.09721851       6.59006990       4.00703943       0.00000000 NULL
P        6.43150984       3.14324832       6.94484525       0.00000000 NULL
P        7.89749527       7.54076584       6.03671746       0.00000000 NULL
