11
Lattice="4.542720000000001 -2.394453515470187e-16 -6.658094282608435e-16 -0.3285191927948183 5.439258113829994 1.2221677807539192e-15 -0.6751197698905939 -2.3521962798364466 10.057244624325616" Properties=species:S:1:pos:R:3:initial_magmoms:R:1:castep_labels:S:1 n_minim_iter=1 pbc="T T T"
P       -0.07515343       2.10848303       5.25240707       0.00000000 NULL
P        1.98832966       1.63458481       9.95424536       0.00000000 NULL
P        1.86047656       1.49944419       5.18034993       0.00000000 NULL
P        0.32271769       1.69677335       8.36940565       0.00000000 NULL
P        4.02502772       0.21024060       2.05670753       0.00000000 NULL
P        1.60819129      -0.49739247       5.22422868       0.00000000 NULL
P        4.14175171      -0.92803269       5.08413830       0.00000000 NULL
P        3.51574351       2.06355776       2.63418446       0.00000000 NULL
P        2.80341362       4.08254458       2.94757323       0.00000000 NULL
P        1.35363253       0.41987687       2.78003864       0.00000000 NULL
P        2.47542749      -1.57960169       9.15605516       0.00000000 NULL
11
Lattice="4.5490807283025765 -0.0007159373132855894 -0.002994134957770514 -0.3298364188549381 5.443378907305991 0.0009593059246455723 -0.6823231581803414 -2.35247611702203 10.053476740047815" Properties=species:S:1:pos:R:3:initial_magmoms:R:1:castep_labels:S:1 n_minim_iter=2 pbc="T T T"
P       -0.07933596       2.11094498       5.25065771       0.00000000 NULL
P        1.98420077       1.63701489       9.94912385       0.00000000 NULL
P        1.85959497       1.50119340       5.17731155       0.00000000 NULL
P        0.31752692       1.69917452       8.36629418       0.00000000 NULL
P        4.02936536       0.20997658       2.05291594       0.00000000 NULL
P        1.60718532      -0.49749598       5.22109656       0.00000000 NULL
P        4.14418824      -0.92887922       5.07934148       0.00000000 NULL
P        3.51860573       2.06503466       2.63129720       0.00000000 NULL
P        2.80458272       4.08545527       2.94533488       0.00000000 NULL
P        1.35390270       0.42042722       2.77821733       0.00000000 NULL
P        2.47303629      -1.58013345       9.15068402       0.00000000 NULL
11
Lattice="4.737458328215066 -0.022483186531518276 -0.09332799483949306 -0.3695226297571961 5.561753236892499 0.029922335993518488 -0.8990405270611238 -2.3582773215381527 9.941622904233517" Properties=species:S:1:pos:R:3:initial_magmoms:R:1:castep_labels:S:1 n_minim_iter=3 pbc="T T T"
P       -0.20555694       2.18289678       5.19906148       0.00000000 NULL
P        1.85801810       1.70851645       9.79669784       0.00000000 NULL
P        1.83139055       1.55219802       5.08652662       0.00000000 NULL
P        0.16062412       1.76976321       8.27373643       0.00000000 NULL
P        4.15740245       0.20163575       1.93934151       0.00000000 NULL
P        1.57558096      -0.50005234       5.12739088       0.00000000 NULL
P        4.21453346      -0.95346283       4.93560560       0.00000000 NULL
P        3.60209353       2.10714320       2.54451876       0.00000000 NULL
P        2.83737441       4.16882026       2.87820283       0.00000000 NULL
P        1.36101908       0.43647805       2.72352026       0.00000000 NULL
P        2.39902837      -1.59451012       8.99031178       0.00000000 NULL
11
Lattice="4.836412329585342 -0.04367940711554745 -0.21127963542603143 -0.4020582039172144 5.561932538186973 0.06432349611702964 -1.1639075306734665 -2.306705831432332 9.714680248331165" Properties=species:S:1:pos:R:3:initial_magmoms:R:1:castep_labels:S:1 n_minim_iter=4 pbc="T T T"
P       -0.35955426       2.21116163       5.08722786       0.00000000 NULL
P        1.63169749       1.75236808       9.51649680       0.00000000 NULL
P        1.73095843       1.57334447       4.92447831       0.00000000 NULL
P       -0.05277863       1.80883631       8.08164188       0.00000000 NULL
P        4.19516678       0.19164279       1.77986374       0.00000000 NULL
P        1.47815764      -0.48686247       4.96077090       0.00000000 NULL
P        4.17424869      -0.95368261       4.70730569       0.00000000 NULL
P        3.60177287       2.10470448       2.40743865       0.00000000 NULL
P        2.79809571       4.16739610       2.76137995       0.00000000 NULL
P        1.32384242       0.44475374       2.62815229       0.00000000 NULL
P        2.22057457      -1.57006527       8.70725691       0.00000000 NULL
11
Lattice="5.205452544320444 -0.14365099612142881 -0.67075601264168 -0.5484480474704861 5.512376550347645 0.20213974028852624 -2.1842345307659343 -2.073907398334426 8.850061685851422" Properties=species:S:1:pos:R:3:initial_magmoms:R:1:castep_labels:S:1 n_minim_iter=5 pbc="T T T"
P       -0.96411323       2.30200076       4.66564084       0.00000000 NULL
P        0.74252337       1.90451492       8.45276297       0.00000000 NULL
P        1.31968877       1.64143764       4.30721538       0.00000000 NULL
P       -0.89569232       1.95142803       7.34457491       0.00000000 NULL
P        4.33190960       0.13879684       1.16460499       0.00000000 NULL
P        1.09200726      -0.43549201       4.31970632       0.00000000 NULL
P        4.00785758      -0.95591465       3.83377571       0.00000000 NULL
P        3.58012568       2.06390846       1.88020995       0.00000000 NULL
P        2.61491835       4.11744810       2.31181871       0.00000000 NULL
P        1.17648954       0.46795411       2.25911289       0.00000000 NULL
P        1.52094220      -1.46536260       7.62342108       0.00000000 NULL
11
Lattice="5.377428278598363 -0.15141370885695912 -0.5475715884591107 -0.5701796813016118 5.605066105507946 0.23798173164347128 -1.9330521788322241 -2.029850410750861 9.338062822201076" Properties=species:S:1:pos:R:3:initial_magmoms:R:1:castep_labels:S:1 n_minim_iter=6 pbc="T T T"
P       -0.82296889       2.37870146       4.95263990       0.00000000 NULL
P        1.10776670       2.00906813       9.03190966       0.00000000 NULL
P        1.51811514       1.72147819       4.64445956       0.00000000 NULL
P       -0.67909785       2.05356520       7.80340403       0.00000000 NULL
P        4.53822300       0.15545507       1.36831206       0.00000000 NULL
P        1.29144443      -0.41584910       4.63245628       0.00000000 NULL
P        4.31715713      -0.93546049       4.22946512       0.00000000 NULL
P        3.78375549       2.11859909       2.13475641       0.00000000 NULL
P        2.77354511       4.20058176       2.56276807       0.00000000 NULL
P        1.31677491       0.49780860       2.44732515       0.00000000 NULL
P        1.86307443      -1.43041994       8.15969481       0.00000000 NULL
11
Lattice="5.220090667208842 -0.16501051063761787 -0.5842700537370219 -0.5750816099517703 5.476130389840343 0.24017268748298268 -1.9838766549334825 -1.9725025783586636 9.063949698477513" Properties=species:S:1:pos:R:3:initial_magmoms:R:1:castep_labels:S:1 n_minim_iter=7 pbc="T T T"
P       -0.86616985       2.32758977       4.80473404       0.00000000 NULL
P        0.95362274       1.96457179       8.73602232       0.00000000 NULL
P        1.40111866       1.68098727       4.48606309       0.00000000 NULL
P       -0.76152831       2.01253486       7.56711854       0.00000000 NULL
P        4.38510881       0.13972702       1.27648395       0.00000000 NULL
P        1.19143678      -0.40938055       4.47279249       0.00000000 NULL
P        4.13978303      -0.92860687       4.05542727       0.00000000 NULL
P        3.63535824       2.05906933       2.03572240       0.00000000 NULL
P        2.64003399       4.09605682       2.45822273       0.00000000 NULL
P        1.24400013       0.48357054       2.36146916       0.00000000 NULL
P        1.70732864      -1.40530068       7.88698167       0.00000000 NULL
11
Lattice="5.205382651290564 -0.17447264081814606 -0.5930016450533575 -0.5853475085414825 5.481507449175719 0.24054463916938562 -1.9961224658343977 -1.973605552801082 9.051018517898498" Properties=species:S:1:pos:R:3:initial_magmoms:R:1:castep_labels:S:1 n_minim_iter=8 pbc="T T T"
P       -0.87864678       2.32836576       4.79576261       0.00000000 NULL
P        0.92882609       1.96040510       8.71463099       0.00000000 NULL
P        1.37740100       1.68405998       4.47625614       0.00000000 NULL
P       -0.78488064       2.01507502       7.55385760       0.00000000 NULL
P        4.37035583       0.13315512       1.26042269       0.00000000 NULL
P        1.17538245      -0.41764640       4.46150286       0.00000000 NULL
P        4.12182062      -0.94007046       4.04585027       0.00000000 NULL
P        3.61559608       2.05484855       2.02779699       0.00000000 NULL
P        2.61103016       4.09322260       2.44786296       0.00000000 NULL
P        1.23653242       0.48171243       2.35618180       0.00000000 NULL
P        1.68388708      -1.41589623       7.87061732       0.00000000 NULL
11
Lattice="5.195074739555105 -0.19737012424541514 -0.6050480057726513 -0.6120185284756507 5.4827379904126055 0.23780572583983928 -2.0094041002412397 -1.9766937561004512 9.04786827021634" Properties=species:S:1:pos:R:3:initial_magmoms:R:1:castep_labels:S:1 n_minim_iter=9 pbc="T T T"
P       -0.89917474       2.32272390       4.78794835       0.00000000 NULL
P        0.89999060       1.94076488       8.69431096       0.00000000 NULL
P        1.34173736       1.68335802       4.46958070       0.00000000 NULL
P       -0.82309323       2.01291500       7.54510738       0.00000000 NULL
P        4.35922944       0.11535513       1.23636750       0.00000000 NULL
P        1.15689646      -0.43747697       4.45260386       0.00000000 NULL
P        4.11044348      -0.96826869       4.04505375       0.00000000 NULL
P        3.59236276       2.03832602       2.02110237       0.00000000 NULL
P        2.56357490       4.07619499       2.43424505       0.00000000 NULL
P        1.23193515       0.47467522       2.35348831       0.00000000 NULL
P        1.65941382      -1.44216306       7.86222192       0.00000000 NULL
11
Lattice="5.192083636869552 -0.26585832159694817 -0.6265441052935431 -0.6938070491210131 5.429234047339734 0.21365929534579034 -2.0210875180549506 -1.9887571590147122 9.051160377890104" Properties=species:S:1:pos:R:3:initial_magmoms:R:1:castep_labels:S:1 n_minim_iter=10 pbc="T T T"
P       -0.94656115       2.26982869       4.76569029       0.00000000 NULL
P        0.85367891       1.83545482       8.64728950       0.00000000 NULL
P        1.26914421       1.64027711       4.45332299       0.00000000 NULL
P       -0.90495308       1.96463443       7.52351757       0.00000000 NULL
P        4.35043684       0.05187568       1.18648780       0.00000000 NULL
P        1.13214347      -0.49579136       4.43818306       0.00000000 NULL
P        4.11208439      -1.05551934       4.05486686       0.00000000 NULL
P        3.55095096       1.95735610       2.00436419       0.00000000 NULL
P        2.45807754       3.97657876       2.39496067       0.00000000 NULL
P        1.23170192       0.44028666       2.34984505       0.00000000 NULL
P        1.63183971      -1.52289125       7.85499931       0.00000000 NULL
11
Lattice="5.1963277906851575 -0.38004670141180397 -0.6721843740464227 -0.8308382457165843 5.459330211153785 0.139192056377097 -2.0636362944519053 -2.1250244454016873 9.180429692807387" Properties=species:S:1:pos:R:3:initial_magmoms:R:1:castep_labels:S:1 n_minim_iter=11 pbc="T T T"
P       -1.04401228       2.19586138       4.77814123       0.00000000 NULL
P        0.74717775       1.62393940       8.66795087       0.00000000 NULL
P        1.15700859       1.55596174       4.46163176       0.00000000 NULL
P       -1.04519247       1.86716036       7.56864203       0.00000000 NULL
P        4.33282611      -0.06769196       1.13042414       0.00000000 NULL
P        1.09094477      -0.62625261       4.47246416       0.00000000 NULL
P        4.09771347      -1.25213557       4.10598581       0.00000000 NULL
P        3.47771725       1.84646774       1.97393730       0.00000000 NULL
P        2.30183702       3.88321509       2.33435517       0.00000000 NULL
P        1.21494587       0.37182907       2.36455935       0.00000000 NULL
P        1.57165014      -1.73542792       7.93905949       0.00000000 NULL
11
Lattice="5.158285713331801 -0.4076837574377669 -0.6778051000374693 -0.861178554757696 5.388648818411388 0.13249551380841632 -2.056116191381369 -2.1026203637401126 9.126273841005528" Properties=species:S:1:pos:R:3:initial_magmoms:R:1:castep_labels:S:1 n_minim_iter=12 pbc="T T T"
P       -1.06107787       2.15964904       4.74435110       0.00000000 NULL
P        0.71387569       1.57265872       8.60213282       0.00000000 NULL
P        1.12334501       1.51926434       4.42719605       0.00000000 NULL
P       -1.06894707       1.83654128       7.51789505       0.00000000 NULL
P        4.29318798      -0.09681853       1.11086001       0.00000000 NULL
P        1.07371650      -0.63442131       4.44028888       0.00000000 NULL
P        4.06312851      -1.27339053       4.07643606       0.00000000 NULL
P        3.43161716       1.79455249       1.95289075       0.00000000 NULL
P        2.24900808       3.80844873       2.30847252       0.00000000 NULL
P        1.19905251       0.35433335       2.34878068       0.00000000 NULL
P        1.54684761      -1.74371205       7.88560244       0.00000000 NULL
11
Lattice="5.174122883239539 -0.4267295477805768 -0.6792266906524626 -0.8851284754947606 5.395967498483534 0.12289013158734081 -2.0517553313423464 -2.1203097172394574 9.170979971818701" Properties=species:S:1:pos:R:3:initial_magmoms:R:1:castep_labels:S:1 n_minim_iter=13 pbc="T T T"
P       -1.07112584       2.15145981       4.76133908       0.00000000 NULL
P        0.71626547       1.54400732       8.63544456       0.00000000 NULL
P        1.12009280       1.50722452       4.44437447       0.00000000 NULL
P       -1.07905984       1.82614472       7.54840811       0.00000000 NULL
P        4.30464828      -0.11599688       1.11420871       0.00000000 NULL
P        1.08039957      -0.65180214       4.46110331       0.00000000 NULL
P        4.07987928      -1.30239368       4.10177690       0.00000000 NULL
P        3.43393395       1.77810689       1.95962425       0.00000000 NULL
P        2.23802312       3.79583151       2.31214544       0.00000000 NULL
P        1.20390392       0.34423766       2.36037915       0.00000000 NULL
P        1.55727700      -1.77338104       7.92442076       0.00000000 NULL
11
Lattice="5.170942322923325 -0.4441026752957387 -0.6834586085467221 -0.9057003024380297 5.3901020183497845 0.11518176484634855 -2.0516560886933544 -2.129466686478396 9.183248726348708" Properties=species:S:1:pos:R:3:initial_magmoms:R:1:castep_labels:S:1 n_minim_iter=14 pbc="T T T"
P       -1.08317878       2.13991123       4.76211688       0.00000000 NULL
P        0.70388284       1.51581827       8.63658394       0.00000000 NULL
P        1.10666139       1.49323762       4.44433017       0.00000000 NULL
P       -1.09423189       1.81406916       7.55259223       0.00000000 NULL
P        4.29817392      -0.13375612       1.10935287       0.00000000 NULL
P        1.07660407      -0.66525152       4.46416375       0.00000000 NULL
P        4.07574803      -1.32584743       4.10689094       0.00000000 NULL
P        3.42047550       1.75865815       1.95632463       0.00000000 NULL
P        2.21599869       3.77536208       2.30618819       0.00000000 NULL
P        1.20049726       0.33445270       2.36228066       0.00000000 NULL
P        1.55120111      -1.79550071       7.93190209       0.00000000 NULL
11
Lattice="5.160797592805542 -0.5256835487663599 -0.7042772349935561 -1.0026480979017611 5.373163107335516 0.07784755290055217 -2.0539971715626777 -2.179281085895065 9.250754703817732" Properties=species:S:1:pos:R:3:initial_magmoms:R:1:castep_labels:S:1 n_minim_iter=15 pbc="T T T"
P       -1.14059117       2.08821009       4.76997653       0.00000000 NULL
P        0.64701510       1.38357341       8.64992742       0.00000000 NULL
P        1.04447182       1.43007518       4.44784833       0.00000000 NULL
P       -1.16708849       1.75947208       7.57953875       0.00000000 NULL
P        4.27131410      -0.21678062       1.08731227       0.00000000 NULL
P        1.05963343      -0.73068012       4.48306934       0.00000000 NULL
P        4.05913601      -1.43887599       4.13548605       0.00000000 NULL
P        3.35991467       1.67086401       1.94215104       0.00000000 NULL
P        2.11474839       3.68617427       2.27983867       0.00000000 NULL
P        1.18547617       0.28838373       2.37359179       0.00000000 NULL
P        1.52308129      -1.90431409       7.97505509       0.00000000 NULL
11
Lattice="5.114285888552119 -0.7308494500023638 -0.7777421618803351 -1.2449413287067208 5.359808032866781 -0.0232187468572723 -2.103496876651061 -2.333294625767291 9.408119368429443" Properties=species:S:1:pos:R:3:initial_magmoms:R:1:castep_labels:S:1 n_minim_iter=16 pbc="T T T"
P       -1.30056974       1.95204913       4.77241245       0.00000000 NULL
P        0.47015496       1.02840391       8.64157872       0.00000000 NULL
P        0.85521604       1.28195676       4.43124143       0.00000000 NULL
P       -1.39154151       1.63175253       7.62981949       0.00000000 NULL
P        4.16848295      -0.42224491       1.00495290       0.00000000 NULL
P        0.98699454      -0.90541939       4.51248762       0.00000000 NULL
P        3.96614277      -1.73414085       4.19010606       0.00000000 NULL
P        3.16931702       1.46000020       1.88489618       0.00000000 NULL
P        1.83159254       3.47134374       2.19479828       0.00000000 NULL
P        1.13127893       0.16785210       2.39628213       0.00000000 NULL
P        1.39207239      -2.20262378       8.05294328       0.00000000 NULL
11
Lattice="5.192027087323036 -0.5838199888749371 -0.7383556045746502 -1.0745166242252082 5.328205629176834 0.08757984127382845 -2.1039826054616064 -2.135942913404465 9.37910173279032" Properties=species:S:1:pos:R:3:initial_magmoms:R:1:castep_labels:S:1 n_minim_iter=17 pbc="T T T"
P       -1.17225005       2.03402272       4.82276470       0.00000000 NULL
P        0.66577324       1.28471525       8.69594790       0.00000000 NULL
P        0.98907303       1.45273567       4.49139461       0.00000000 NULL
P       -1.26267474       1.81908854       7.70139590       0.00000000 NULL
P        4.24541994      -0.25211015       1.04244898       0.00000000 NULL
P        1.04139866      -0.73892852       4.52608498       0.00000000 NULL
P        4.03984830      -1.47294006       4.23813188       0.00000000 NULL
P        3.30475937       1.63010165       1.97188619       0.00000000 NULL
P        2.02486379       3.58943169       2.31234584       0.00000000 NULL
P        1.20611601       0.27529911       2.44069917       0.00000000 NULL
P        1.46294167      -1.93116159       8.05194790       0.00000000 NULL
11
Lattice="5.058068491846421 -0.6001508117071473 -0.7695902502155706 -1.0843828697657047 5.270912201000093 0.0972585831235307 -2.144769419330665 -2.0945092280399895 9.184994097739423" Properties=species:S:1:pos:R:3:initial_magmoms:R:1:castep_labels:S:1 n_minim_iter=18 pbc="T T T"
P       -1.21229399       2.01582682       4.72387691       0.00000000 NULL
P        0.53174732       1.27157815       8.48862647       0.00000000 NULL
P        0.89483982       1.43735198       4.37977007       0.00000000 NULL
P       -1.33045285       1.81266039       7.54021471       0.00000000 NULL
P        4.11374398      -0.26869361       0.97750214       0.00000000 NULL
P        0.95603711      -0.72951525       4.41510395       0.00000000 NULL
P        3.88601376      -1.46942500       4.10338725       0.00000000 NULL
P        3.17326606       1.59863843       1.89937655       0.00000000 NULL
P        1.91241460       3.54059401       2.24457950       0.00000000 NULL
P        1.13699187       0.27072597       2.37811398       0.00000000 NULL
P        1.33296419      -1.91098653       7.85384238       0.00000000 NULL
11
Lattice="5.12471917408441 -0.6153559782284292 -0.7728874290164766 -1.1074089100457694 5.3315774251890256 0.09263190197694099 -2.154101315397513 -2.1270042019852444 9.297890138525776" Properties=species:S:1:pos:R:3:initial_magmoms:R:1:castep_labels:S:1 n_minim_iter=19 pbc="T T T"
P       -1.22383758       2.03163074       4.78060830       0.00000000 NULL
P        0.55556555       1.26875238       8.59080589       0.00000000 NULL
P        0.91308171       1.44699120       4.43316663       0.00000000 NULL
P       -1.34000228       1.82629839       7.63113920       0.00000000 NULL
P        4.16960480      -0.28098920       0.99282176       0.00000000 NULL
P        0.97837388      -0.74659200       4.47185826       0.00000000 NULL
P        3.94522806      -1.49765369       4.16220954       0.00000000 NULL
P        3.21498996       1.60819406       1.92419809       0.00000000 NULL
P        1.93343040       3.57287937       2.27176140       0.00000000 NULL
P        1.15627089       0.26860117       2.40912522       0.00000000 NULL
P        1.36656994      -1.94491285       7.95280861       0.00000000 NULL
