8
Lattice="4.57932 -4.2042832382463774e-32 0.0 -2.28966 5.032899010471758 0.0 0.0 0.0 7.90759" Properties=species:S:1:pos:R:3:initial_magmoms:R:1:castep_labels:S:1 n_minim_iter=1 pbc="T T T"
P        3.41550483       0.99281734       4.11939496       0.00000000 NULL
P       -1.12584482       4.04008168       4.11939496       0.00000000 NULL
P        1.12584483       4.04008168       3.78819504       0.00000000 NULL
P        1.16381518       0.99281734       3.78819504       0.00000000 NULL
P        2.04756097       2.05367142       6.37934385       0.00000000 NULL
P        0.24209904       2.97922760       6.37934385       0.00000000 NULL
P       -0.24209903       2.97922760       1.52824615       0.00000000 NULL
P        2.53175904       2.05367142       1.52824615       0.00000000 NULL
8
Lattice="4.582321788926866 1.1865718847224533e-18 0.0 -2.291160894463433 5.037539029938026 0.0 0.0 0.0 7.90447611404187" Properties=species:S:1:pos:R:3:initial_magmoms:R:1:castep_labels:S:1 n_minim_iter=2 pbc="T T T"
P        3.41774497       0.99400701       4.11783128       0.00000000 NULL
P       -1.12658407       4.04353203       4.11783128       0.00000000 NULL
P        1.12658407       4.04353203       3.78664483       0.00000000 NULL
P        1.16457683       0.99400701       3.78664483       0.00000000 NULL
P        2.04898271       2.05546748       6.37686430       0.00000000 NULL
P        0.24217819       2.98207156       6.37686430       0.00000000 NULL
P       -0.24217818       2.98207156       1.52761182       0.00000000 NULL
P        2.53333908       2.05546748       1.52761182       0.00000000 NULL
8
Lattice="4.6888700240619805 3.7315444761748694e-17 0.0 -2.3444350120309903 5.2022359089125905 0.0 0.0 0.0 7.791749038598854" Properties=species:S:1:pos:R:3:initial_magmoms:R:1:castep_labels:S:1 n_minim_iter=3 pbc="T T T"
P        3.49724237       1.03648476       4.06111965       0.00000000 NULL
P       -1.15280736       4.16575117       4.06111965       0.00000000 NULL
P        1.15280736       4.16575117       3.73062939       0.00000000 NULL
P        1.19162765       1.03648476       3.73062939       0.00000000 NULL
P        2.09946877       2.11910516       6.28707000       0.00000000 NULL
P        0.24496625       3.08313076       6.28707000       0.00000000 NULL
P       -0.24496624       3.08313076       1.50467904       0.00000000 NULL
P        2.58940126       2.11910516       1.50467904       0.00000000 NULL
8
Lattice="4.712468251052233 3.109872665859373e-17 0.0 -2.3562341255261163 5.230074027194352 0.0 0.0 0.0 7.60549981958061" Properties=species:S:1:pos:R:3:initial_magmoms:R:1:castep_labels:S:1 n_minim_iter=4 pbc="T T T"
P        3.51420181       1.04674426       3.96438251       0.00000000 NULL
P       -1.15796768       4.18332978       3.96438251       0.00000000 NULL
P        1.15796769       4.18332978       3.64111731       0.00000000 NULL
P        1.19826644       1.04674426       3.64111731       0.00000000 NULL
P        2.11042712       2.12793829       6.13795713       0.00000000 NULL
P        0.24580701       3.10213575       6.13795713       0.00000000 NULL
P       -0.24580701       3.10213575       1.46754269       0.00000000 NULL
P        2.60204114       2.12793829       1.46754269       0.00000000 NULL
8
Lattice="4.7547409541200265 3.3831706077904743e-17 0.0 -2.3773704770600133 5.251244165627404 0.0 0.0 0.0 7.117781172243036" Properties=species:S:1:pos:R:3:initial_magmoms:R:1:castep_labels:S:1 n_minim_iter=5 pbc="T T T"
P        3.54385256       1.05985321       3.70970341       0.00000000 NULL
P       -1.16648207       4.19139097       3.70970341       0.00000000 NULL
P        1.16648208       4.19139097       3.40807776       0.00000000 NULL
P        1.21088840       1.05985321       3.40807776       0.00000000 NULL
P        2.12969556       2.13056289       5.74764338       0.00000000 NULL
P        0.24767492       3.12068129       5.74764338       0.00000000 NULL
P       -0.24767491       3.12068129       1.37013779       0.00000000 NULL
P        2.62504540       2.13056289       1.37013779       0.00000000 NULL
8
Lattice="4.828840692497497 2.865859031874895e-17 0.0 -2.4144203462487486 5.265038892652767 0.0 0.0 0.0 6.6106107028008925" Properties=species:S:1:pos:R:3:initial_magmoms:R:1:castep_labels:S:1 n_minim_iter=6 pbc="T T T"
P        3.59754228       1.06833344       3.44334945       0.00000000 NULL
P       -1.18312192       4.19670546       3.44334945       0.00000000 NULL
P        1.18312193       4.19670546       3.16726125       0.00000000 NULL
P        1.23129842       1.06833344       3.16726125       0.00000000 NULL
P        2.16326094       2.13034480       5.34240004       0.00000000 NULL
P        0.25115941       3.13469411       5.34240004       0.00000000 NULL
P       -0.25115940       3.13469411       1.26821066       0.00000000 NULL
P        2.66557976       2.13034480       1.26821066       0.00000000 NULL
8
Lattice="5.062716623431106 -2.5942765625680263e-17 0.0 -2.531358311715553 5.440267852694141 0.0 0.0 0.0 5.744433324516832" Properties=species:S:1:pos:R:3:initial_magmoms:R:1:castep_labels:S:1 n_minim_iter=7 pbc="T T T"
P        3.77109450       1.11321085       2.98727000       0.00000000 NULL
P       -1.23973619       4.32705702       2.98727000       0.00000000 NULL
P        1.23973619       4.32705702       2.75716333       0.00000000 NULL
P        1.29162212       1.11321085       2.75716333       0.00000000 NULL
P        2.26470914       2.18843901       4.65394083       0.00000000 NULL
P        0.26664917       3.25182885       4.65394083       0.00000000 NULL
P       -0.26664917       3.25182885       1.09049250       0.00000000 NULL
P        2.79800749       2.18843901       1.09049250       0.00000000 NULL
8
Lattice="5.116038698103004 -2.5607596596412723e-17 0.0 -2.558019349051502 5.398012403234682 0.0 0.0 0.0 5.970278241750289" Properties=species:S:1:pos:R:3:initial_magmoms:R:1:castep_labels:S:1 n_minim_iter=8 pbc="T T T"
P        3.81435191       1.09160032       3.10801493       0.00000000 NULL
P       -1.25633256       4.30641210       3.10801493       0.00000000 NULL
P        1.25633257       4.30641210       2.86226331       0.00000000 NULL
P        1.30168679       1.09160032       2.86226331       0.00000000 NULL
P        2.27149678       2.16712443       4.83903551       0.00000000 NULL
P        0.28652257       3.23088798       4.83903551       0.00000000 NULL
P       -0.28652256       3.23088798       1.13124273       0.00000000 NULL
P        2.84454192       2.16712443       1.13124273       0.00000000 NULL
8
Lattice="5.025853571692215 -1.2723157746574212e-17 0.0 -2.5129267858461075 5.369566037316306 0.0 0.0 0.0 5.899614896684767" Properties=species:S:1:pos:R:3:initial_magmoms:R:1:castep_labels:S:1 n_minim_iter=9 pbc="T T T"
P        3.74836421       1.08374991       3.07200243       0.00000000 NULL
P       -1.23543741       4.28581614       3.07200243       0.00000000 NULL
P        1.23543742       4.28581614       2.82761246       0.00000000 NULL
P        1.27748937       1.08374991       2.82761246       0.00000000 NULL
P        2.22251866       2.15252805       4.78392743       0.00000000 NULL
P        0.29040813       3.21703800       4.78392743       0.00000000 NULL
P       -0.29040812       3.21703800       1.11568747       0.00000000 NULL
P        2.80333491       2.15252805       1.11568747       0.00000000 NULL
8
Lattice="5.058896289264547 -2.195944869379524e-17 0.0 -2.5294481446322736 5.410691415513661 0.0 0.0 0.0 5.923613289025283" Properties=species:S:1:pos:R:3:initial_magmoms:R:1:castep_labels:S:1 n_minim_iter=10 pbc="T T T"
P        3.77448570       1.09102916       3.08528530       0.00000000 NULL
P       -1.24503755       4.31966227       3.08528530       0.00000000 NULL
P        1.24503756       4.31966227       2.83832799       0.00000000 NULL
P        1.28441059       1.09102916       2.83832799       0.00000000 NULL
P        2.23386223       2.16670027       4.80484362       0.00000000 NULL
P        0.29558592       3.24399116       4.80484362       0.00000000 NULL
P       -0.29558592       3.24399116       1.11876967       0.00000000 NULL
P        2.82503407       2.16670027       1.11876967       0.00000000 NULL
