11
Lattice="3.75007 -5.950449046720893e-16 -5.612948904296096e-16 0.9394190283815842 7.253782054812138 -1.762835018795275e-15 1.5611345609642466 3.4839685236054736 9.113886967100774" Properties=species:S:1:pos:R:3:initial_magmoms:R:1:castep_labels:S:1 n_minim_iter=1 pbc="T T T"
P        5.54844520       8.95005338       7.90584854       0.00000000 NULL
P        2.64313373       5.35950531       4.74075874       0.00000000 NULL
P        3.33254810       6.55628486       3.23951107       0.00000000 NULL
P        3.64995919       6.79477900       5.89393521       0.00000000 NULL
P        2.44728928       8.35092502       5.40044466       0.00000000 NULL
P        4.09994476       3.09297102       3.63409407       0.00000000 NULL
P        4.76593517       7.63149824       4.19026994       0.00000000 NULL
P        1.42662636       5.81038899       3.01172223       0.00000000 NULL
P        4.68624685       5.05489872       5.75621344       0.00000000 NULL
P        4.05042025       4.16726115       1.92468705       0.00000000 NULL
P        3.84490015       5.82674641       8.61141104       0.00000000 NULL
11
Lattice="3.7629690078113787 0.00014038487400629246 0.0013174981098279823 0.9429218682392684 7.272780249548182 -0.0009858867018030632 1.5698367217855338 3.4914814707813187 9.130298683370974" Properties=species:S:1:pos:R:3:initial_magmoms:R:1:castep_labels:S:1 n_minim_iter=2 pbc="T T T"
P        5.57066561       8.97222472       7.92033342       0.00000000 NULL
P        2.65415266       5.37234795       4.74932881       0.00000000 NULL
P        3.34523051       6.57319005       3.24481378       0.00000000 NULL
P        3.66494753       6.81174407       5.90507672       0.00000000 NULL
P        2.45794840       8.37237255       5.40990146       0.00000000 NULL
P        4.11542268       3.10046892       3.64170781       0.00000000 NULL
P        4.78401522       7.65124036       4.19809594       0.00000000 NULL
P        1.43287750       5.82475961       3.01625690       0.00000000 NULL
P        4.70456155       5.06672770       5.76774678       0.00000000 NULL
P        4.06517822       4.17803980       1.92871632       0.00000000 NULL
P        3.86135078       5.84056944       8.62717653       0.00000000 NULL
11
Lattice="4.047846043088345 0.0031806285489443175 0.031076721382194465 1.0201663390623792 7.68905196079342 -0.023563200316156056 1.7635786241490983 3.654581854742963 9.481996785618334" Properties=species:S:1:pos:R:3:initial_magmoms:R:1:castep_labels:S:1 n_minim_iter=3 pbc="T T T"
P        6.06268463       9.45664059       8.23068130       0.00000000 NULL
P        2.89832338       5.65265282       4.93291276       0.00000000 NULL
P        3.62558342       6.94324518       3.35763681       0.00000000 NULL
P        3.99711924       7.18252785       6.14411556       0.00000000 NULL
P        2.69423803       8.84184077       5.61193080       0.00000000 NULL
P        4.45785107       3.26408903       3.80590789       0.00000000 NULL
P        5.18379150       8.08337212       4.36594172       0.00000000 NULL
P        1.57133061       6.13889822       3.11234002       0.00000000 NULL
P        5.11004248       5.32440346       6.01614090       0.00000000 NULL
P        4.39140635       4.41391718       2.01574225       0.00000000 NULL
P        4.22602552       6.14206286       8.96517368       0.00000000 NULL
11
Lattice="4.138193944750865 0.0025499986721414323 0.05109722250638123 1.0415792957038168 7.8295128672083605 -0.03478809410517404 1.8492604171357565 3.701453453712258 9.51000295788077" Properties=species:S:1:pos:R:3:initial_magmoms:R:1:castep_labels:S:1 n_minim_iter=4 pbc="T T T"
P        6.23782294       9.60996452       8.25925027       0.00000000 NULL
P        2.98714943       5.74142769       4.95027021       0.00000000 NULL
P        3.72095824       7.06486495       3.36280691       0.00000000 NULL
P        4.11764754       7.30210300       6.17021175       0.00000000 NULL
P        2.78043151       8.99872939       5.62862956       0.00000000 NULL
P        4.57491610       3.31572398       3.83195763       0.00000000 NULL
P        5.31842199       8.22542273       4.38874073       0.00000000 NULL
P        1.61929607       6.23994475       3.11122519       0.00000000 NULL
P        5.25343588       5.40103469       6.05258588       0.00000000 NULL
P        4.49965899       4.48985219       2.03528487       0.00000000 NULL
P        4.36285882       6.23655786       8.99612006       0.00000000 NULL
11
Lattice="4.195057346716398 -0.002482095289892994 0.07568934508874908 1.0460903712157865 7.908056703541114 -0.04795020986255102 1.9280241710357675 3.7134108635598233 9.417463631663438" Properties=species:S:1:pos:R:3:initial_magmoms:R:1:castep_labels:S:1 n_minim_iter=5 pbc="T T T"
P        6.36284645       9.67708012       8.18348012       0.00000000 NULL
P        3.05194909       5.78069890       4.90610985       0.00000000 NULL
P        3.78321466       7.12599226       3.32554747       0.00000000 NULL
P        4.20536694       7.35792158       6.11904036       0.00000000 NULL
P        2.84124947       9.08145078       5.57506612       0.00000000 NULL
P        4.65592159       3.33630296       3.81266313       0.00000000 NULL
P        5.40669778       8.29574734       4.35991415       0.00000000 NULL
P        1.64961471       6.28860065       3.06911535       0.00000000 NULL
P        5.35636290       5.42656298       6.01650502       0.00000000 NULL
P        4.57008492       4.52477343       2.03393377       0.00000000 NULL
P        4.46877500       6.27515509       8.91407080       0.00000000 NULL
11
Lattice="4.222261610839531 -0.007291739578850503 0.09288223426025968 1.0436019088503168 7.9300594560945115 -0.06692092230724674 1.9766651073817019 3.693308374094354 9.277593420159457" Properties=species:S:1:pos:R:3:initial_magmoms:R:1:castep_labels:S:1 n_minim_iter=6 pbc="T T T"
P        6.42872892       9.67057092       8.05596301       0.00000000 NULL
P        3.08653868       5.77703612       4.83165494       0.00000000 NULL
P        3.81361925       7.13372558       3.26535799       0.00000000 NULL
P        4.25229954       7.35697162       6.02861760       0.00000000 NULL
P        2.87258101       9.09401289       5.48572404       0.00000000 NULL
P        4.69771195       3.33090302       3.76693245       0.00000000 NULL
P        5.45006695       8.30298028       4.29744780       0.00000000 NULL
P        1.66320485       6.29184658       3.00864172       0.00000000 NULL
P        5.41081536       5.41223786       5.94001380       0.00000000 NULL
P        4.60477760       4.52645164       2.01276446       0.00000000 NULL
P        4.52780190       6.26359604       8.78156835       0.00000000 NULL
11
Lattice="4.307295810129677 -0.01765999199456251 0.13341538392264599 1.0448482060030364 7.977506439860664 -0.145469391179086 2.1009405760418076 3.6015797880698988 8.84117540919395" Properties=species:S:1:pos:R:3:initial_magmoms:R:1:castep_labels:S:1 n_minim_iter=7 pbc="T T T"
P        6.61743589       9.61309219       7.63283981       0.00000000 NULL
P        3.18408303       5.74237891       4.58488826       0.00000000 NULL
P        3.90568270       7.13438540       3.05915389       0.00000000 NULL
P        4.38571213       7.32323065       5.72734542       0.00000000 NULL
P        2.96240232       9.09572255       5.18460455       0.00000000 NULL
P        4.82000497       3.30059820       3.60978280       0.00000000 NULL
P        5.58129669       8.29724834       4.07277003       0.00000000 NULL
P        1.70312037       6.28133683       2.80882562       0.00000000 NULL
P        5.56635752       5.34767074       5.68008825       0.00000000 NULL
P        4.71112953       4.52037364       1.92371739       0.00000000 NULL
P        4.68928650       6.19456491       8.35452924       0.00000000 NULL
11
Lattice="4.434365083761345 -0.022419255559452844 0.14968904039955416 1.0674740857682394 8.009978911185172 -0.27986331791860125 2.188967566449819 3.4417886380796188 8.38457373678936" Properties=species:S:1:pos:R:3:initial_magmoms:R:1:castep_labels:S:1 n_minim_iter=8 pbc="T T T"
P        6.82946948       9.49147491       7.12725014       0.00000000 NULL
P        3.28690250       5.66574276       4.29175780       0.00000000 NULL
P        4.02506557       7.10354558       2.79324846       0.00000000 NULL
P        4.53060031       7.23623116       5.36806358       0.00000000 NULL
P        3.05833518       9.04198754       4.81528534       0.00000000 NULL
P        4.97082566       3.24271620       3.41447437       0.00000000 NULL
P        5.75230181       8.25184620       3.76715232       0.00000000 NULL
P        1.74861556       6.24181628       2.56707156       0.00000000 NULL
P        5.74269592       5.24173077       5.36287013       0.00000000 NULL
P        4.85635929       4.50053371       1.77826688       0.00000000 NULL
P        4.84739935       6.05856677       7.87356953       0.00000000 NULL
11
Lattice="4.6207280795651995 -0.03169775051034537 0.15553460397651292 1.096211886468992 7.950174605704915 -0.46292543010899556 2.272136023299493 3.178473562034592 7.824874401139293" Properties=species:S:1:pos:R:3:initial_magmoms:R:1:castep_labels:S:1 n_minim_iter=9 pbc="T T T"
P        7.09458000       9.20285091       6.48609426       0.00000000 NULL
P        3.40718845       5.48521840       3.91740537       0.00000000 NULL
P        4.18184928       6.96561278       2.44899223       0.00000000 NULL
P        4.70923526       7.01813501       4.91033885       0.00000000 NULL
P        3.16966511       8.84392009       4.33760288       0.00000000 NULL
P        5.17400242       3.11831639       3.16221669       0.00000000 NULL
P        5.97909245       8.07766724       3.36186924       0.00000000 NULL
P        1.79992610       6.11039660       2.26057935       0.00000000 NULL
P        5.96879588       5.03001094       4.95322993       0.00000000 NULL
P        5.05710802       4.41523759       1.57537598       0.00000000 NULL
P        5.03699471       5.79145134       7.26731625       0.00000000 NULL
11
Lattice="4.87807859299164 -0.051555607337726905 0.15992697056157945 1.122268841079196 7.84399993500587 -0.6446002315955177 2.371495812645673 2.891956147407855 7.581504184100022" Properties=species:S:1:pos:R:3:initial_magmoms:R:1:castep_labels:S:1 n_minim_iter=10 pbc="T T T"
P        7.43197096       8.85112354       6.12831007       0.00000000 NULL
P        3.55420902       5.26349561       3.70627781       0.00000000 NULL
P        4.38158623       6.77804660       2.21806050       0.00000000 NULL
P        4.93694512       6.74631862       4.65952701       0.00000000 NULL
P        3.30426454       8.58446329       4.03924668       0.00000000 NULL
P        5.44772258       2.96323315       3.03947080       0.00000000 NULL
P        6.27186442       7.84510849       3.10006506       0.00000000 NULL
P        1.86695650       5.94290572       2.06002657       0.00000000 NULL
P        6.26434475       4.77755892       4.74318486       0.00000000 NULL
P        5.31946724       4.29964519       1.43371951       0.00000000 NULL
P        5.28379894       5.48100173       6.95934218       0.00000000 NULL
11
Lattice="4.973780406301635 -0.07832677622261673 0.16271732704805425 1.0944591948673847 7.61566717426962 -0.6930263908501562 2.393245937892871 2.712642547338482 7.408172775709286" Properties=species:S:1:pos:R:3:initial_magmoms:R:1:castep_labels:S:1 n_minim_iter=11 pbc="T T T"
P        7.51131937       8.48621929       5.94277300       0.00000000 NULL
P        3.57892057       5.04492804       3.59231239       0.00000000 NULL
P        4.42323904       6.52961709       2.11892111       0.00000000 NULL
P        4.99246781       6.46553911       4.52723931       0.00000000 NULL
P        3.31223019       8.27558550       3.89290895       0.00000000 NULL
P        5.53660724       2.81981095       2.96687113       0.00000000 NULL
P        6.33933056       7.55043553       2.98219116       0.00000000 NULL
P        1.86867741       5.73299091       1.97099349       0.00000000 NULL
P        6.34634205       4.54816048       4.62092075       0.00000000 NULL
P        5.39462999       4.13611825       1.37406876       0.00000000 NULL
P        5.35066796       5.22135162       6.77119288       0.00000000 NULL
11
Lattice="5.0635926801023965 -0.09128308878736727 0.16297596511998755 1.0918963337506402 7.594258288811926 -0.7404039127569321 2.4192259482992258 2.6389170968553604 7.431699472492439" Properties=species:S:1:pos:R:3:initial_magmoms:R:1:castep_labels:S:1 n_minim_iter=12 pbc="T T T"
P        7.61031910       8.39392723       5.92603806       0.00000000 NULL
P        3.61791610       4.98685460       3.58128368       0.00000000 NULL
P        4.47980457       6.48025324       2.08791616       0.00000000 NULL
P        5.06241962       6.39262388       4.52059055       0.00000000 NULL
P        3.34306879       8.21316369       3.86406454       0.00000000 NULL
P        5.62661466       2.77543032       2.97077476       0.00000000 NULL
P        6.42471232       7.49125108       2.95371427       0.00000000 NULL
P        1.89059245       5.69040643       1.94680513       0.00000000 NULL
P        6.43814459       4.47797542       4.62127029       0.00000000 NULL
P        5.47520701       4.10471548       1.35301671       0.00000000 NULL
P        5.42568548       5.13978959       6.77094859       0.00000000 NULL
11
Lattice="5.086613842157994 -0.1003367085057826 0.16296957769013543 1.0801508285856605 7.52122350608713 -0.7625698281016197 2.4203828310457434 2.5733110944645974 7.3868369576349915" Properties=species:S:1:pos:R:3:initial_magmoms:R:1:castep_labels:S:1 n_minim_iter=13 pbc="T T T"
P        7.62087869       8.26977798       5.87004761       0.00000000 NULL
P        3.61722335       4.91210223       3.54626410       0.00000000 NULL
P        4.48413157       6.39704321       2.05399398       0.00000000 NULL
P        5.07272997       6.29577585       4.48225836       0.00000000 NULL
P        3.33738117       8.10998865       3.81676171       0.00000000 NULL
P        5.64563220       2.72636563       2.95051784       0.00000000 NULL
P        6.43305073       7.39408344       2.91478247       0.00000000 NULL
P        1.89166355       5.61885894       1.91721994       0.00000000 NULL
P        6.45145184       4.39850673       4.58609423       0.00000000 NULL
P        5.48852819       4.05168240       1.33130837       0.00000000 NULL
P        5.43712467       5.04904639       6.71668330       0.00000000 NULL
11
Lattice="5.124666451640229 -0.10809899210579269 0.16294820671396076 1.0746686461050834 7.473711845654008 -0.7872563537600125 2.4289605161029844 2.5171837120949667 7.3667693839671085" Properties=species:S:1:pos:R:3:initial_magmoms:R:1:castep_labels:S:1 n_minim_iter=14 pbc="T T T"
P        7.65646037       8.17583574       5.83354974       0.00000000 NULL
P        3.62838141       4.85471365       3.52293014       0.00000000 NULL
P        4.50368218       6.33678273       2.02640997       0.00000000 NULL
P        5.10074295       6.22155047       4.45916029       0.00000000 NULL
P        3.34428051       8.03542167       3.78186037       0.00000000 NULL
P        5.68198173       2.68812171       2.93994507       0.00000000 NULL
P        6.46266965       7.32437501       2.88521139       0.00000000 NULL
P        1.90211610       5.56627208       1.89390899       0.00000000 NULL
P        6.48528507       4.33569783       4.56606936       0.00000000 NULL
P        5.51888033       4.01424588       1.31315774       0.00000000 NULL
P        5.46600468       4.97698220       6.68461412       0.00000000 NULL
11
Lattice="5.296789110657915 -0.13863448742162185 0.16227597518581544 1.0587216032872389 7.256909028177955 -0.8903408037745401 2.470611814617758 2.274709137287941 7.265372323866133" Properties=species:S:1:pos:R:3:initial_magmoms:R:1:castep_labels:S:1 n_minim_iter=15 pbc="T T T"
P        7.82703264       7.76321479       5.66595637       0.00000000 NULL
P        3.68327584       4.60310104       3.41517357       0.00000000 NULL
P        4.59909214       6.06877960       1.90460980       0.00000000 NULL
P        5.23807781       5.89339862       4.35385363       0.00000000 NULL
P        3.38274652       7.70464210       3.62430720       0.00000000 NULL
P        5.84841176       2.52388256       2.88888941       0.00000000 NULL
P        6.60309391       7.01673696       2.75356424       0.00000000 NULL
P        1.96297017       5.33014757       1.79051716       0.00000000 NULL
P        6.64216658       4.06256442       4.47198952       0.00000000 NULL
P        5.65924770       3.85059352       1.23215929       0.00000000 NULL
P        5.60291097       4.66364383       6.53150292       0.00000000 NULL
11
Lattice="5.487011056732073 -0.15985787221586353 0.13072999501158628 1.0653210288966277 6.9754889287931325 -0.9998040764087195 2.4534158561712207 2.0056580622378517 7.10373554418508" Properties=species:S:1:pos:R:3:initial_magmoms:R:1:castep_labels:S:1 n_minim_iter=16 pbc="T T T"
P        7.98033668       7.28302268       5.41622019       0.00000000 NULL
P        3.71564523       4.31345845       3.25625583       0.00000000 NULL
P        4.69773048       5.73987667       1.73950995       0.00000000 NULL
P        5.38330202       5.50251084       4.20239813       0.00000000 NULL
P        3.38990570       7.31084206       3.41331037       0.00000000 NULL
P        5.99717533       2.34973306       2.78736811       0.00000000 NULL
P        6.73581933       6.65615873       2.56653874       0.00000000 NULL
P        2.07110994       5.03036734       1.65680046       0.00000000 NULL
P        6.77984302       3.75424211       4.31754203       0.00000000 NULL
P        5.80541828       3.66720548       1.10353787       0.00000000 NULL
P        5.70746262       4.31081558       6.29172896       0.00000000 NULL
11
Lattice="5.642746621657322 -0.15127579569620195 0.060588938280646376 1.1209342483132996 7.015723587200505 -1.0614071599511221 2.355755331018091 1.9721991878991139 7.316471191994129" Properties=species:S:1:pos:R:3:initial_magmoms:R:1:castep_labels:S:1 n_minim_iter=17 pbc="T T T"
P        8.07568265       7.29560003       5.49098193       0.00000000 NULL
P        3.72516651       4.31711449       3.30459507       0.00000000 NULL
P        4.79482861       5.74536156       1.71768534       0.00000000 NULL
P        5.47387827       5.49622155       4.29788425       0.00000000 NULL
P        3.37470413       7.34525774       3.46607671       0.00000000 NULL
P        6.07212276       2.36171786       2.80833779       0.00000000 NULL
P        6.86280250       6.68909692       2.56240450       0.00000000 NULL
P        2.14695029       5.02736115       1.66350908       0.00000000 NULL
P        6.88221088       3.74428737       4.39255390       0.00000000 NULL
P        5.94820644       3.70892643       1.04188586       0.00000000 NULL
P        5.72782205       4.30519177       6.40524485       0.00000000 NULL
11
Lattice="5.523919138359342 -0.13913961856326704 0.0666554260265889 1.114642201763789 6.844917227166669 -1.0389365664843062 2.332306609197696 1.9200768486765307 7.125910989381595" Properties=species:S:1:pos:R:3:initial_magmoms:R:1:castep_labels:S:1 n_minim_iter=18 pbc="T T T"
P        7.94512387       7.12272346       5.34896131       0.00000000 NULL
P        3.66788210       4.21503582       3.21677630       0.00000000 NULL
P        4.71719022       5.60407116       1.67457821       0.00000000 NULL
P        5.39072036       5.36203138       4.18998792       0.00000000 NULL
P        3.32588372       7.16598945       3.37404107       0.00000000 NULL
P        5.95446625       2.31335817       2.74024410       0.00000000 NULL
P        6.74783935       6.52905752       2.49941755       0.00000000 NULL
P        2.12104543       4.90477850       1.61638098       0.00000000 NULL
P        6.75886079       3.65711262       4.28520747       0.00000000 NULL
P        5.83948379       3.62685898       1.01982516       0.00000000 NULL
P        5.63932161       4.20302046       6.23593850       0.00000000 NULL
11
Lattice="5.542569553303448 -0.13632527105963532 0.06810051175532396 1.1247580710951794 6.8543446940551505 -1.0429060473180316 2.3461973508244287 1.919995595130388 7.143581069280331" Properties=species:S:1:pos:R:3:initial_magmoms:R:1:castep_labels:S:1 n_minim_iter=19 pbc="T T T"
P        7.98241196       7.13324674       5.36221872       0.00000000 NULL
P        3.68456923       4.22031614       3.22396881       0.00000000 NULL
P        4.74019116       5.61039924       1.67732689       0.00000000 NULL
P        5.41944025       5.36898912       4.20302233       0.00000000 NULL
P        3.34175549       7.17637221       3.38151611       0.00000000 NULL
P        5.97361159       2.31890613       2.74841438       0.00000000 NULL
P        6.77914130       6.53968546       2.50650940       0.00000000 NULL
P        2.13752844       4.91048499       1.61749721       0.00000000 NULL
P        6.79134890       3.66071589       4.29959159       0.00000000 NULL
P        5.86433904       3.63562709       1.02153325       0.00000000 NULL
P        5.66653493       4.20853705       6.24910793       0.00000000 NULL
11
Lattice="5.5459769292569945 -0.13396629271727392 0.06794901811756075 1.1301746282728105 6.846310550207959 -1.0446271352435144 2.3494392323800057 1.9147202759366908 7.1422715317440915" Properties=species:S:1:pos:R:3:initial_magmoms:R:1:castep_labels:S:1 n_minim_iter=20 pbc="T T T"
P        7.99297393       7.12463649       5.35942615       0.00000000 NULL
P        3.68850819       4.21469177       3.22169679       0.00000000 NULL
P        4.74769662       5.60157304       1.67464569       0.00000000 NULL
P        5.42956040       5.36142165       4.20380354       0.00000000 NULL
P        3.34399880       7.16806892       3.37939726       0.00000000 NULL
P        5.97406123       2.31806554       2.74789308       0.00000000 NULL
P        6.78868861       6.53257071       2.50538262       0.00000000 NULL
P        2.14548228       4.90349776       1.61379394       0.00000000 NULL
P        6.80133368       3.65416065       4.30103184       0.00000000 NULL
P        5.87192517       3.63437747       1.01925471       0.00000000 NULL
P        5.67376506       4.20271408       6.24445015       0.00000000 NULL
11
Lattice="5.5615821121705435 -0.12482025779824255 0.06207037725852156 1.1517750649949812 6.811366145855904 -1.0551866705845203 2.350145624484882 1.8892265369671009 7.147411928225384" Properties=species:S:1:pos:R:3:initial_magmoms:R:1:castep_labels:S:1 n_minim_iter=21 pbc="T T T"
P        8.02617865       7.08418552       5.34956249       0.00000000 NULL
P        3.69791265       4.18862148       3.21376518       0.00000000 NULL
P        4.77501695       5.56030821       1.66082579       0.00000000 NULL
P        5.46530606       5.32601742       4.21128657       0.00000000 NULL
P        3.34114105       7.13120378       3.37310128       0.00000000 NULL
P        5.96710583       2.31313214       2.74538166       0.00000000 NULL
P        6.82316867       6.49966044       2.49913621       0.00000000 NULL
P        2.17651448       4.87192680       1.59692209       0.00000000 NULL
P        6.83782778       3.62148988       4.31037048       0.00000000 NULL
P        5.90343965       3.62827632       1.00490310       0.00000000 NULL
P        5.69261893       4.17470268       6.22858375       0.00000000 NULL
