13
Lattice="4.474840000000004 -5.209003232499041e-16 -4.833020332537868e-16 0.32229292854885355 6.793809636036866 3.435657739156856e-15 1.1932997010921393 0.18756326620154515 9.304365848731726" Properties=species:S:1:pos:R:3:initial_magmoms:R:1:castep_labels:S:1 n_minim_iter=1 pbc="T T T"
P        2.98846233       0.53442705       9.24739615       0.00000000 NULL
P        3.39766852       5.34518332       0.66429730       0.00000000 NULL
P        4.83628752       6.57126239       2.60846222       0.00000000 NULL
P        4.24852038       3.00537284       8.59930427       0.00000000 NULL
P        1.25703919       4.87303730       1.90708144       0.00000000 NULL
P        4.17777351       2.70452777       2.38752261       0.00000000 NULL
P        1.04580641       2.83042760       6.98621008       0.00000000 NULL
P        5.09442486       6.08206313       4.56881860       0.00000000 NULL
P        1.25322982       2.81659955       1.12851351       0.00000000 NULL
P        2.30333494       3.51180927       8.47851964       0.00000000 NULL
P        2.00254916       0.25139477       3.31999406       0.00000000 NULL
P        4.41477640       0.79803199       7.80400243       0.00000000 NULL
P        3.80685835       4.73047108       5.28826845       0.00000000 NULL
13
Lattice="4.483607818193575 -0.0009321366018843129 -0.002173560616181945 0.3215092239191044 6.797204542801349 -0.0007915357659181919 1.1910793305485396 0.18654063476279129 9.323198036525445" Properties=species:S:1:pos:R:3:initial_magmoms:R:1:castep_labels:S:1 n_minim_iter=2 pbc="T T T"
P        2.98966177       0.53310092       9.26534329       0.00000000 NULL
P        3.40273378       5.34717534       0.66353308       0.00000000 NULL
P        4.84294812       6.57362061       2.61074813       0.00000000 NULL
P        4.25224857       3.00511633       8.61497754       0.00000000 NULL
P        1.25779958       4.87489279       1.90992536       0.00000000 NULL
P        4.18407929       2.70480738       2.39039224       0.00000000 NULL
P        1.04388159       2.83092456       6.99970317       0.00000000 NULL
P        5.10106450       6.08374370       4.57553290       0.00000000 NULL
P        1.25467319       2.81754316       1.13015980       0.00000000 NULL
P        2.30282367       3.51260975       8.49461616       0.00000000 NULL
P        2.00477479       0.25081280       3.32597953       0.00000000 NULL
P        4.41958072       0.79684324       7.81799309       0.00000000 NULL
P        3.81068391       4.73147546       5.29707024       0.00000000 NULL
13
Lattice="4.666505985251196 -0.021375051354895248 -0.047688987243641526 0.30364523652503456 6.864165489344564 -0.016535530093166387 1.1443571700054609 0.16590606510632452 9.716234185184309" Properties=species:S:1:pos:R:3:initial_magmoms:R:1:castep_labels:S:1 n_minim_iter=3 pbc="T T T"
P        3.01426203       0.50546645       9.63997800       0.00000000 NULL
P        3.50693493       5.38513819       0.64814644       0.00000000 NULL
P        4.98021089       6.61844333       2.65896325       0.00000000 NULL
P        4.32923425       2.99807092       8.94220997       0.00000000 NULL
P        1.27281259       4.91076283       1.96967285       0.00000000 NULL
P        4.31486688       2.70851975       2.45055502       0.00000000 NULL
P        1.00285032       2.84028271       7.28139468       0.00000000 NULL
P        5.23812893       6.11480436       4.71630892       0.00000000 NULL
P        1.28407684       2.83545827       1.16497318       0.00000000 NULL
P        2.29094006       3.52787381       8.83083570       0.00000000 NULL
P        2.05086836       0.23842184       3.45092351       0.00000000 NULL
P        4.51933913       0.77154772       8.10995035       0.00000000 NULL
P        3.88918101       4.74954373       5.48122381       0.00000000 NULL
13
Lattice="4.706013661753691 -0.045647424303724725 -0.04719060575397862 0.2696398114217719 6.820887210569321 -0.008387221476808985 1.1549115175853941 0.1693970628176584 9.820197789856072" Properties=species:S:1:pos:R:3:initial_magmoms:R:1:castep_labels:S:1 n_minim_iter=4 pbc="T T T"
P        3.04054146       0.49422712       9.74517531       0.00000000 NULL
P        3.50349821       5.33651572       0.66265575       0.00000000 NULL
P        4.98518789       6.55873510       2.69463872       0.00000000 NULL
P        4.35503526       2.96492934       9.04106723       0.00000000 NULL
P        1.26279501       4.87365411       1.99525964       0.00000000 NULL
P        4.33730638       2.67285482       2.48146614       0.00000000 NULL
P        0.99648426       2.82453451       7.35939934       0.00000000 NULL
P        5.25345451       6.05670180       4.77717530       0.00000000 NULL
P        1.28008206       2.81078436       1.18399361       0.00000000 NULL
P        2.29123248       3.50777037       8.92819051       0.00000000 NULL
P        2.06471556       0.22925758       3.48918326       0.00000000 NULL
P        4.55497973       0.75389389       8.19904051       0.00000000 NULL
P        3.89690114       4.70493422       5.54643599       0.00000000 NULL
13
Lattice="4.721773898513465 -0.07564964068186299 -0.04036272661913339 0.22522483035600796 6.741830987740344 0.007617652235771491 1.1720536852514867 0.1805192428634097 9.874372368934154" Properties=species:S:1:pos:R:3:initial_magmoms:R:1:castep_labels:S:1 n_minim_iter=5 pbc="T T T"
P        3.06456175       0.48546620       9.80388908       0.00000000 NULL
P        3.47435366       5.25725622       0.68425184       0.00000000 NULL
P        4.95944834       6.46188420       2.73017777       0.00000000 NULL
P        4.36708873       2.91972932       9.10080443       0.00000000 NULL
P        1.24418440       4.81128135       2.01710328       0.00000000 NULL
P        4.33824657       2.62081925       2.50750074       0.00000000 NULL
P        0.99033415       2.80015057       7.40318877       0.00000000 NULL
P        5.24139727       5.96596789       4.82617362       0.00000000 NULL
P        1.26701476       2.77053762       1.20185801       0.00000000 NULL
P        2.28682116       3.47606264       8.98570476       0.00000000 NULL
P        2.07093346       0.21945476       3.51210755       0.00000000 NULL
P        4.57688489       0.73538286       8.25246658       0.00000000 NULL
P        3.88547474       4.63627045       5.59286854       0.00000000 NULL
13
Lattice="4.751740822585611 -0.16081877468040615 -0.02658897331743273 0.09807732216947807 6.504284548357827 0.07183416670918547 1.2051142998019069 0.23800667528683353 9.973462196271466" Properties=species:S:1:pos:R:3:initial_magmoms:R:1:castep_labels:S:1 n_minim_iter=6 pbc="T T T"
P        3.11298595       0.48463172       9.91535952       0.00000000 NULL
P        3.37613933       5.02525034       0.75279535       0.00000000 NULL
P        4.86640725       6.18178888       2.82943523       0.00000000 NULL
P        4.37661996       2.81014218       9.22320842       0.00000000 NULL
P        1.18796305       4.63029471       2.08078183       0.00000000 NULL
P        4.32494733       2.47536481       2.56985359       0.00000000 NULL
P        0.96018988       2.74531926       7.49327247       0.00000000 NULL
P        5.18689569       5.71100123       4.94840046       0.00000000 NULL
P        1.22411544       2.65270248       1.25161647       0.00000000 NULL
P        2.25653366       3.40341841       9.10796218       0.00000000 NULL
P        2.07599787       0.20057746       3.55589272       0.00000000 NULL
P        4.61464426       0.70230086       8.35582301       0.00000000 NULL
P        3.83210551       4.44600426       5.70347362       0.00000000 NULL
13
Lattice="4.82475662828043 -0.1959715330028059 -0.06210658443670982 0.04996640191841957 6.4215149332191315 0.1686147614707084 1.1492614704307949 0.36246523268696973 10.067852977088126" Properties=species:S:1:pos:R:3:initial_magmoms:R:1:castep_labels:S:1 n_minim_iter=7 pbc="T T T"
P        3.09445487       0.57889321      10.00457979       0.00000000 NULL
P        3.36051262       4.95532184       0.81350743       0.00000000 NULL
P        4.86495294       6.11488350       2.91440137       0.00000000 NULL
P        4.36308897       2.86286644       9.32185812       0.00000000 NULL
P        1.17923273       4.58636955       2.16254063       0.00000000 NULL
P        4.35530388       2.44994969       2.60321749       0.00000000 NULL
P        0.89500110       2.80389186       7.59188293       0.00000000 NULL
P        5.20397987       5.67684613       5.04583301       0.00000000 NULL
P        1.21197966       2.61274975       1.29821102       0.00000000 NULL
P        2.19748776       3.47937133       9.23323082       0.00000000 NULL
P        2.06649921       0.22830616       3.58049704       0.00000000 NULL
P        4.61908897       0.77175451       8.41791522       0.00000000 NULL
P        3.80410335       4.42758115       5.80487151       0.00000000 NULL
13
Lattice="4.77258841165178 -0.20299363275315604 -0.05262333113484144 0.03554795203784994 6.330196890377066 0.20240714060256443 1.154773679332685 0.4034299763271989 9.982567577633167" Properties=species:S:1:pos:R:3:initial_magmoms:R:1:castep_labels:S:1 n_minim_iter=8 pbc="T T T"
P        3.08338833       0.60843868       9.92576555       0.00000000 NULL
P        3.30472648       4.88605648       0.84194850       0.00000000 NULL
P        4.80196712       6.03507883       2.93146560       0.00000000 NULL
P        4.32923765       2.85599592       9.26079141       0.00000000 NULL
P        1.16920204       4.52792020       2.17193322       0.00000000 NULL
P        4.31046625       2.42082944       2.60136009       0.00000000 NULL
P        0.89056578       2.79847170       7.53916028       0.00000000 NULL
P        5.15115706       5.61344753       5.04255042       0.00000000 NULL
P        1.19337661       2.57367521       1.30556229       0.00000000 NULL
P        2.18369560       3.47384760       9.17448175       0.00000000 NULL
P        2.04422203       0.23681366       3.55343273       0.00000000 NULL
P        4.58222623       0.79157834       8.35767226       0.00000000 NULL
P        3.75984700       4.38066173       5.78697186       0.00000000 NULL
13
Lattice="4.8078071751282385 -0.20333817161020915 -0.06453666281663173 0.037561437886206514 6.348771721202178 0.2124094499445521 1.1393800385882715 0.41872523194565275 10.043803860081773" Properties=species:S:1:pos:R:3:initial_magmoms:R:1:castep_labels:S:1 n_minim_iter=9 pbc="T T T"
P        3.08375021       0.62294056       9.98315146       0.00000000 NULL
P        3.32461859       4.90330885       0.84708277       0.00000000 NULL
P        4.83078258       6.05895512       2.94611062       0.00000000 NULL
P        4.34117179       2.87666958       9.31234297       0.00000000 NULL
P        1.17886093       4.54392415       2.19013797       0.00000000 NULL
P        4.33703475       2.43272467       2.61139334       0.00000000 NULL
P        0.87895385       2.81747624       7.58649174       0.00000000 NULL
P        5.18270660       5.63943753       5.07071697       0.00000000 NULL
P        1.19964375       2.57961206       1.31523491       0.00000000 NULL
P        2.17892439       3.49965060       9.23215843       0.00000000 NULL
P        2.04882727       0.24227686       3.57130930       0.00000000 NULL
P        4.59641025       0.80478691       8.40049289       0.00000000 NULL
P        3.77263032       4.39920961       5.82223662       0.00000000 NULL
13
Lattice="4.807934312549172 -0.20558397784955323 -0.06629262107572341 0.034160957739921824 6.334800788548017 0.22285032838209612 1.1356687113084512 0.4322174648033484 10.042307757218108" Properties=species:S:1:pos:R:3:initial_magmoms:R:1:castep_labels:S:1 n_minim_iter=10 pbc="T T T"
P        3.08165524       0.63342060       9.98178323       0.00000000 NULL
P        3.31768183       4.89348401       0.85497651       0.00000000 NULL
P        4.82542654       6.04876174       2.95359143       0.00000000 NULL
P        4.33754191       2.88085469       9.31291490       0.00000000 NULL
P        1.17995882       4.53608835       2.19759043       0.00000000 NULL
P        4.33574527       2.42974389       2.61346356       0.00000000 NULL
P        0.87371323       2.82227908       7.58799862       0.00000000 NULL
P        5.18106457       5.63341904       5.07784821       0.00000000 NULL
P        1.19713036       2.57235575       1.31968627       0.00000000 NULL
P        2.17404347       3.50665130       9.23544742       0.00000000 NULL
P        2.04523781       0.24547010       3.57007917       0.00000000 NULL
P        4.59300182       0.81234900       8.39886382       0.00000000 NULL
P        3.76644742       4.39403388       5.82818662       0.00000000 NULL
13
Lattice="4.819099389984003 -0.21345127043030468 -0.07593835778537258 0.023020791244430457 6.296571963276012 0.25685927765115935 1.118260313521252 0.4766076442623945 10.052384715183415" Properties=species:S:1:pos:R:3:initial_magmoms:R:1:castep_labels:S:1 n_minim_iter=11 pbc="T T T"
P        3.07437872       0.66780988       9.99068875       0.00000000 NULL
P        3.29975171       4.86756800       0.88008109       0.00000000 NULL
P        4.81567695       6.02303526       2.97804856       0.00000000 NULL
P        4.32868462       2.89692607       9.32518365       0.00000000 NULL
P        1.18707556       4.51562243       2.22470882       0.00000000 NULL
P        4.33940502       2.42304791       2.62084952       0.00000000 NULL
P        0.85206716       2.84148478       7.60301576       0.00000000 NULL
P        5.18479186       5.62090200       5.10524669       0.00000000 NULL
P        1.19029974       2.54997938       1.33549303       0.00000000 NULL
P        2.15586737       3.53471495       9.25875944       0.00000000 NULL
P        2.03440829       0.25579188       3.56973129       0.00000000 NULL
P        4.58562512       0.83689057       8.40280839       0.00000000 NULL
P        3.74925436       4.38089174       5.85399374       0.00000000 NULL
13
Lattice="4.846468992581797 -0.2381422456241283 -0.1009060119042843 -0.01249439048731553 6.2318289405963165 0.2958524539046302 1.0726097048601522 0.5241503330604683 10.03369717053998" Properties=species:S:1:pos:R:3:initial_magmoms:R:1:castep_labels:S:1 n_minim_iter=12 pbc="T T T"
P        3.05239723       0.69287531       9.96472876       0.00000000 NULL
P        3.24315684       4.81905503       0.90947374       0.00000000 NULL
P        4.78050797       5.96798039       2.98072745       0.00000000 NULL
P        4.30193244       2.88508943       9.29236437       0.00000000 NULL
P        1.20885166       4.47219887       2.25321728       0.00000000 NULL
P        4.34565682       2.39956313       2.60910919       0.00000000 NULL
P        0.79078507       2.85739188       7.58696043       0.00000000 NULL
P        5.18662316       5.58250940       5.11445539       0.00000000 NULL
P        1.16816374       2.49258911       1.35181151       0.00000000 NULL
P        2.10542302       3.56602795       9.25360225       0.00000000 NULL
P        2.00503068       0.25689799       3.54882096       0.00000000 NULL
P        4.56412244       0.84046221       8.36910451       0.00000000 NULL
P        3.69981591       4.32665242       5.86189008       0.00000000 NULL
13
Lattice="4.849950424243946 -0.2617412076205277 -0.10304986134978272 -0.048072157425501326 6.297252941062251 0.1774649557477975 1.068091316136822 0.3577859204523399 9.934652033467396" Properties=species:S:1:pos:R:3:initial_magmoms:R:1:castep_labels:S:1 n_minim_iter=13 pbc="T T T"
P        3.04730421       0.52747345       9.85289840       0.00000000 NULL
P        3.18877993       4.84486191       0.83239938       0.00000000 NULL
P        4.73500282       5.97654239       2.83146778       0.00000000 NULL
P        4.29083205       2.73157305       9.13720605       0.00000000 NULL
P        1.23037418       4.47833941       2.16035890       0.00000000 NULL
P        4.33818269       2.37040549       2.53504976       0.00000000 NULL
P        0.76028391       2.76991127       7.45117111       0.00000000 NULL
P        5.16406360       5.54823388       4.97264699       0.00000000 NULL
P        1.14795182       2.46483479       1.29704024       0.00000000 NULL
P        2.08922976       3.46621549       9.10237996       0.00000000 NULL
P        1.99657366       0.18544227       3.49877258       0.00000000 NULL
P        4.55915122       0.67556808       8.26728734       0.00000000 NULL
P        3.67399249       4.24365786       5.72679807       0.00000000 NULL
13
Lattice="4.805453825753149 -0.24174177330237953 -0.1108971782458939 -0.02091332927793408 6.202913210932954 0.19305721142189824 1.0407471148272458 0.3826030490657469 9.819087970080448" Properties=species:S:1:pos:R:3:initial_magmoms:R:1:castep_labels:S:1 n_minim_iter=14 pbc="T T T"
P        3.00738107       0.55476257       9.73339792       0.00000000 NULL
P        3.16538202       4.78903539       0.83723514       0.00000000 NULL
P        4.70924914       5.91337405       2.80664435       0.00000000 NULL
P        4.24724396       2.72679872       9.02803732       0.00000000 NULL
P        1.24867971       4.42159836       2.15067710       0.00000000 NULL
P        4.30443891       2.35695465       2.50604079       0.00000000 NULL
P        0.74683296       2.75228401       7.36736773       0.00000000 NULL
P        5.13115829       5.49795011       4.92562420       0.00000000 NULL
P        1.14503321       2.42753450       1.28599048       0.00000000 NULL
P        2.06965951       3.45198313       9.00478008       0.00000000 NULL
P        1.97149413       0.19708173       3.45269504       0.00000000 NULL
P        4.50537322       0.70065276       8.16383251       0.00000000 NULL
P        3.65026004       4.20423080       5.66513633       0.00000000 NULL
13
Lattice="4.852962229969831 -0.24026384706427584 -0.12306095517911653 -0.01524779213169787 6.249713841123504 0.18829324028369585 1.0281863838367498 0.37896168522567636 9.894785791058515" Properties=species:S:1:pos:R:3:initial_magmoms:R:1:castep_labels:S:1 n_minim_iter=15 pbc="T T T"
P        3.01388257       0.55461742       9.80290617       0.00000000 NULL
P        3.19786525       4.82640756       0.83335631       0.00000000 NULL
P        4.75354207       5.96034913       2.81083449       0.00000000 NULL
P        4.27074336       2.74330941       9.08679031       0.00000000 NULL
P        1.26389789       4.45474954       2.16193571       0.00000000 NULL
P        4.34239255       2.37589583       2.51426186       0.00000000 NULL
P        0.73891570       2.76872832       7.41952125       0.00000000 NULL
P        5.17581492       5.54013357       4.94880334       0.00000000 NULL
P        1.15616327       2.44327927       1.29078654       0.00000000 NULL
P        2.07263393       3.47503717       9.06837953       0.00000000 NULL
P        1.98371244       0.19715059       3.47506441       0.00000000 NULL
P        4.53188987       0.70167810       8.21633915       0.00000000 NULL
P        3.67751222       4.23313199       5.69743348       0.00000000 NULL
13
Lattice="4.849374551213003 -0.2397567417257107 -0.12123513411502365 -0.014736289230500781 6.245200867521652 0.18774555333931517 1.031047278416244 0.3780411387372692 9.882050123051938" Properties=species:S:1:pos:R:3:initial_magmoms:R:1:castep_labels:S:1 n_minim_iter=16 pbc="T T T"
P        3.01556499       0.55400530       9.79003599       0.00000000 NULL
P        3.19392466       4.82320416       0.83491035       0.00000000 NULL
P        4.75059861       5.95705266       2.80822190       0.00000000 NULL
P        4.27126264       2.74047600       9.07528622       0.00000000 NULL
P        1.26729986       4.45165455       2.16037084       0.00000000 NULL
P        4.34039137       2.37424670       2.51236495       0.00000000 NULL
P        0.74033311       2.76667820       7.40888581       0.00000000 NULL
P        5.17417508       5.53664260       4.94465770       0.00000000 NULL
P        1.15560139       2.43990152       1.28948280       0.00000000 NULL
P        2.07501331       3.47353087       9.05708376       0.00000000 NULL
P        1.98329467       0.19648852       3.47069409       0.00000000 NULL
P        4.53168459       0.70029673       8.20649128       0.00000000 NULL
P        3.67778206       4.22911837       5.69079404       0.00000000 NULL
13
Lattice="4.85017415349824 -0.2388559605648583 -0.12140201287559334 -0.013311111594486051 6.244359742403737 0.1860989796151531 1.0309512789132245 0.37601775491738876 9.876355487183899" Properties=species:S:1:pos:R:3:initial_magmoms:R:1:castep_labels:S:1 n_minim_iter=17 pbc="T T T"
P        3.01606122       0.55271232       9.78322587       0.00000000 NULL
P        3.19314149       4.82303218       0.83506062       0.00000000 NULL
P        4.75164815       5.95750944       2.80457796       0.00000000 NULL
P        4.27244842       2.73837525       9.06839283       0.00000000 NULL
P        1.27205593       4.45104195       2.15923098       0.00000000 NULL
P        4.34155200       2.37407832       2.51026382       0.00000000 NULL
P        0.73984563       2.76533166       7.40283313       0.00000000 NULL
P        5.17610519       5.53634650       4.94125399       0.00000000 NULL
P        1.15600319       2.43769315       1.28819598       0.00000000 NULL
P        2.07622030       3.47320260       9.05114226       0.00000000 NULL
P        1.98334368       0.19561671       3.46808948       0.00000000 NULL
P        4.53248678       0.69849787       8.20077832       0.00000000 NULL
P        3.67982878       4.22704696       5.68616807       0.00000000 NULL
13
Lattice="4.854042975059486 -0.2339453816836236 -0.12492214992273062 -0.005577107260730544 6.239064780249726 0.17642910472799128 1.0248695117220583 0.3642752860062931 9.850117579389892" Properties=species:S:1:pos:R:3:initial_magmoms:R:1:castep_labels:S:1 n_minim_iter=18 pbc="T T T"
P        3.01276850       0.54464250       9.75061640       0.00000000 NULL
P        3.19042527       4.82129081       0.83223675       0.00000000 NULL
P        4.75639944       5.95823462       2.78328892       0.00000000 NULL
P        4.27325304       2.72650495       9.03402517       0.00000000 NULL
P        1.29340265       4.44683112       2.15184332       0.00000000 NULL
P        4.34595484       2.37260463       2.49746645       0.00000000 NULL
P        0.73401491       2.75675577       7.37422525       0.00000000 NULL
P        5.18339403       5.53320259       4.92091771       0.00000000 NULL
P        1.15768826       2.42710042       1.28090359       0.00000000 NULL
P        2.07719903       3.46880225       9.02196066       0.00000000 NULL
P        1.98157568       0.19096647       3.45518665       0.00000000 NULL
P        4.53179220       0.68870832       8.17214518       0.00000000 NULL
P        3.68696511       4.21571094       5.66171058       0.00000000 NULL
13
Lattice="4.859678633488376 -0.22244305879526974 -0.141273483885803 0.012291894744937706 6.22398649656027 0.15343081180151444 0.9928557747976747 0.33701932836800297 9.800275318105335" Properties=species:S:1:pos:R:3:initial_magmoms:R:1:castep_labels:S:1 n_minim_iter=19 pbc="T T T"
P        2.98484591       0.52464559       9.68579940       0.00000000 NULL
P        3.19100919       4.81409669       0.81319104       0.00000000 NULL
P        4.76376191       5.95359884       2.73027678       0.00000000 NULL
P        4.25538683       2.70029384       8.96235691       0.00000000 NULL
P        1.32386733       4.43425834       2.13005741       0.00000000 NULL
P        4.34854486       2.36743396       2.46286577       0.00000000 NULL
P        0.71134477       2.73386956       7.32060096       0.00000000 NULL
P        5.18826444       5.52105486       4.86628555       0.00000000 NULL
P        1.15983693       2.40949141       1.26321893       0.00000000 NULL
P        2.06052418       3.45019837       8.96135186       0.00000000 NULL
P        1.97046149       0.18175890       3.42875679       0.00000000 NULL
P        4.51241042       0.66882851       8.11106822       0.00000000 NULL
P        3.68906882       4.19131331       5.60619395       0.00000000 NULL
13
Lattice="4.869668620814931 -0.21135660990614308 -0.14674522428977047 0.029843120166188158 6.2260961635319445 0.1440751469304413 0.9846072977363941 0.3277387423357871 9.751306935512952" Properties=species:S:1:pos:R:3:initial_magmoms:R:1:castep_labels:S:1 n_minim_iter=20 pbc="T T T"
P        2.98203219       0.52308392       9.62665999       0.00000000 NULL
P        3.20000639       4.82044792       0.81021229       0.00000000 NULL
P        4.78170258       5.96989274       2.70087450       0.00000000 NULL
P        4.26158351       2.69851462       8.90567686       0.00000000 NULL
P        1.35597965       4.43790174       2.11947953       0.00000000 NULL
P        4.36098113       2.37191188       2.44235619       0.00000000 NULL
P        0.70696854       2.73056003       7.27418047       0.00000000 NULL
P        5.20902315       5.53171562       4.83356759       0.00000000 NULL
P        1.16564414       2.40320785       1.25350601       0.00000000 NULL
P        2.06587417       3.45484224       8.91108608       0.00000000 NULL
P        1.96965864       0.17968736       3.40831135       0.00000000 NULL
P        4.51575317       0.66613073       8.06116888       0.00000000 NULL
P        3.70738943       4.18950981       5.56695867       0.00000000 NULL
