8
Lattice="5.47287 -4.378359734082478e-16 -3.0425622858551503e-16 0.5463208428507563 5.617295788603876 6.151733819653757e-16 0.5463208428507564 0.3941212712634388 5.603452542870737" Properties=species:S:1:pos:R:3:initial_magmoms:R:1:castep_labels:S:1 n_minim_iter=1 pbc="T T T"
P        1.19399435       0.91244300       5.06783925       0.00000000 NULL
P        3.93042935       5.11936900       0.55462413       0.00000000 NULL
P        2.56112635       4.07536144       1.58188771       0.00000000 NULL
P        5.29756135       1.86392523       3.95432957       0.00000000 NULL
P        3.07127221       2.62385862       3.48007575       0.00000000 NULL
P        5.80770721       3.65559490       2.37322296       0.00000000 NULL
P        5.84444955       4.41802699       0.46897536       0.00000000 NULL
P        3.10801455       0.77779767       4.37423492       0.00000000 NULL
8
Lattice="5.478784312972703 -0.00039529494399363237 -0.0003684682724630867 0.5465055035176412 5.6199956549343995 -0.005907514434284619 0.5465055035176413 0.38841774358141573 5.606560239280358" Properties=species:S:1:pos:R:3:initial_magmoms:R:1:castep_labels:S:1 n_minim_iter=2 pbc="T T T"
P        1.19486688       0.90751998       5.07024933       0.00000000 NULL
P        3.93425904       5.12123009       0.54935991       0.00000000 NULL
P        2.56329468       4.07531329       1.57859112       0.00000000 NULL
P        5.30268683       1.86043574       3.95432860       0.00000000 NULL
P        3.07422462       2.62147302       3.47932576       0.00000000 NULL
P        5.81361677       3.65448173       2.37071163       0.00000000 NULL
P        5.85056670       4.41914004       0.46403968       0.00000000 NULL
P        3.11117454       0.77314990       4.37587576       0.00000000 NULL
8
Lattice="5.684171450990221 -0.014054588775436519 -0.013100774813727518 0.5529882046667226 5.715059155386348 -0.21347631492370642 0.5529882046667226 0.18803032984439222 5.715952928572568" Properties=species:S:1:pos:R:3:initial_magmoms:R:1:castep_labels:S:1 n_minim_iter=3 pbc="T T T"
P        1.22515891       0.73431038       5.15518810       0.00000000 NULL
P        4.06724464       5.18697713       0.36425154       0.00000000 NULL
P        2.63842720       4.07368764       1.46317043       0.00000000 NULL
P        5.48051292       1.73835579       3.95443896       0.00000000 NULL
P        3.17693272       2.53780246       3.45299346       0.00000000 NULL
P        6.01901845       3.61551418       2.28272865       0.00000000 NULL
P        6.06326701       4.45890364       0.29096933       0.00000000 NULL
P        3.22118129       0.61012561       4.43405050       0.00000000 NULL
8
Lattice="5.7014986762907265 -0.016331813478290463 -0.01522345577643827 0.5523805490120819 5.67853276082154 -0.318009403474804 0.5523805490120819 0.08119208373780944 5.686850810594576" Properties=species:S:1:pos:R:3:initial_magmoms:R:1:castep_labels:S:1 n_minim_iter=4 pbc="T T T"
P        1.22513177       0.63417441       5.12352324       0.00000000 NULL
P        4.07588111       5.14722595       0.26552267       0.00000000 NULL
P        2.63904993       4.01221539       1.38281920       0.00000000 NULL
P        5.48979927       1.65275094       3.89769447       0.00000000 NULL
P        3.18753102       2.45720238       3.39095273       0.00000000 NULL
P        6.03828036       3.54683265       2.20561876       0.00000000 NULL
P        6.08307301       4.41661113       0.20089973       0.00000000 NULL
P        3.23232367       0.51844926       4.39924302       0.00000000 NULL
8
Lattice="5.676092357942102 -0.01487764703698256 -0.013867976267671007 0.5513369433303695 5.599797173648125 -0.4305655506995817 0.5513369433303696 -0.036610934653241126 5.616206434855342" Properties=species:S:1:pos:R:3:initial_magmoms:R:1:castep_labels:S:1 n_minim_iter=5 pbc="T T T"
P        1.21862115       0.52049571       5.05487996       0.00000000 NULL
P        4.05666733       5.07150298       0.15761801       0.00000000 NULL
P        2.62212484       3.91825138       1.28668940       0.00000000 NULL
P        5.46017102       1.55099242       3.81138444       0.00000000 NULL
P        3.17955096       2.35298778       3.30191566       0.00000000 NULL
P        6.01759714       3.45143017       2.10858575       0.00000000 NULL
P        6.06148920       4.34383322       0.10450889       0.00000000 NULL
P        3.22344303       0.41646263       4.33272972       0.00000000 NULL
8
Lattice="5.527375513918937 0.009102380361269837 0.008484647774989123 0.5611043588439788 5.276940653432458 -0.8831788715225234 0.5611043588439788 -0.5107611282551241 5.325901862484466" Properties=species:S:1:pos:R:3:initial_magmoms:R:1:castep_labels:S:1 n_minim_iter=6 pbc="T T T"
P        1.19505428       0.06163433       4.77873557       0.00000000 NULL
P        3.95874204       4.77583445      -0.26956137       0.00000000 NULL
P        2.54483661       3.53800597       0.90917164       0.00000000 NULL
P        5.30852436       1.15971620       3.46973985       0.00000000 NULL
P        3.14593675       1.93681014       2.94863216       0.00000000 NULL
P        5.90962451       3.08180742       1.72939717       0.00000000 NULL
P        5.94764551       4.06462599      -0.26599199       0.00000000 NULL
P        3.18395775       0.01529503       4.06902937       0.00000000 NULL
8
Lattice="5.5199228767664135 -0.08595001015090434 -0.0801170170266776 0.462799644145587 5.190548363005545 -0.9622471332285312 0.46279964414558705 -0.5956959989477519 5.245270072259738" Properties=species:S:1:pos:R:3:initial_magmoms:R:1:castep_labels:S:1 n_minim_iter=7 pbc="T T T"
P        1.06389587      -0.03556198       4.71437285       0.00000000 NULL
P        3.82385731       4.65728466      -0.40630315       0.00000000 NULL
P        2.42368670       3.39901304       0.81420082       0.00000000 NULL
P        5.18364814       1.00770119       3.29345197       0.00000000 NULL
P        3.05816112       1.79690836       2.82510842       0.00000000 NULL
P        5.81812256       2.90124609       1.55420601       0.00000000 NULL
P        5.88995803       3.88974539      -0.42894974       0.00000000 NULL
P        3.12999659      -0.11200493       3.95031403       0.00000000 NULL
8
Lattice="5.3208274650017415 -0.08108545313060968 -0.07558259292436591 0.4479181802154238 5.28552889008874 -1.051425700114199 0.44791818021542384 -0.677990761179003 5.346273485202493" Properties=species:S:1:pos:R:3:initial_magmoms:R:1:castep_labels:S:1 n_minim_iter=8 pbc="T T T"
P        1.02927372      -0.09749253       4.80450967       0.00000000 NULL
P        3.68968745       4.74528644      -0.47213806       0.00000000 NULL
P        2.33111188       3.43723912       0.78733075       0.00000000 NULL
P        4.99152561       0.98601164       3.33573633       0.00000000 NULL
P        2.95722282       1.78667753       2.85238729       0.00000000 NULL
P        5.61763656       2.93017220       1.54435367       0.00000000 NULL
P        5.67661960       3.96149333      -0.49167710       0.00000000 NULL
P        3.01620586      -0.17197599       4.02401903       0.00000000 NULL
