6
Lattice="2.62546 0.0 5.3336980983733304e-17 0.0 5.864999999999999 0.0 -1.1206471857100915 0.0 8.1643381775414" Properties=species:S:1:pos:R:3:initial_magmoms:R:1:castep_labels:S:1 n_minim_iter=1 pbc="T T T"
P        1.95500563       5.49269332       0.79187794       0.00000000 NULL
P       -0.45019281       5.49269332       7.37246024       0.00000000 NULL
P        0.08195694       4.66796875       4.85445343       0.00000000 NULL
P        1.42285588       4.66796875       3.30988475       0.00000000 NULL
P        0.59139007       0.31287781       2.22603783       0.00000000 NULL
P        0.91342275       0.31287781       5.93830035       0.00000000 NULL
6
Lattice="2.6343631492226023 0.0 0.0005503739144524307 0.0 5.872706084810031 0.0 -1.122735905537695 0.0 8.192812548400337" Properties=species:S:1:pos:R:3:initial_magmoms:R:1:castep_labels:S:1 n_minim_iter=2 pbc="T T T"
P        1.96178477       5.49970598       0.79515031       0.00000000 NULL
P       -0.45015752       5.49970598       7.39821262       0.00000000 NULL
P        0.08327143       4.67375393       4.87172750       0.00000000 NULL
P        1.42835582       4.67375393       3.32163542       0.00000000 NULL
P        0.59391605       0.31384126       2.23414148       0.00000000 NULL
P        0.91771120       0.31384126       5.95922145       0.00000000 NULL
6
Lattice="2.8252700829639052 0.0 0.013008084424747593 0.0 6.035995901067377 0.0 -1.1654828361730065 0.0 8.800774165898629" Properties=species:S:1:pos:R:3:initial_magmoms:R:1:castep_labels:S:1 n_minim_iter=3 pbc="T T T"
P        2.10731764       5.64826171       0.86563588       0.00000000 NULL
P       -0.44753039       5.64826171       7.94814637       0.00000000 NULL
P        0.11274606       4.79623276       5.24074615       0.00000000 NULL
P        1.54704119       4.79623276       3.57303610       0.00000000 NULL
P        0.64874029       0.33440472       2.40747324       0.00000000 NULL
P        1.01104697       0.33440472       6.40630902       0.00000000 NULL
6
Lattice="2.911364985861288 0.0 0.02238663162709196 0.0 6.133073408419013 0.0 -1.1730671755504671 0.0 8.981730834766873" Properties=species:S:1:pos:R:3:initial_magmoms:R:1:castep_labels:S:1 n_minim_iter=4 pbc="T T T"
P        2.17380561       5.73678498       0.89183324       0.00000000 NULL
P       -0.43550780       5.73678498       8.11228423       0.00000000 NULL
P        0.13473913       4.86892320       5.34987756       0.00000000 NULL
P        1.60355869       4.86892320       3.65423991       0.00000000 NULL
P        0.67770527       0.34654910       2.46030842       0.00000000 NULL
P        1.06059255       0.34654910       6.54380905       0.00000000 NULL
6
Lattice="2.9946551947859876 0.0 0.03204359560759231 0.0 6.238248850273989 0.0 -1.1785885769519489 0.0 9.04281640565883" Properties=species:S:1:pos:R:3:initial_magmoms:R:1:castep_labels:S:1 n_minim_iter=5 pbc="T T T"
P        2.23817622       5.83266303       0.90818174       0.00000000 NULL
P       -0.42210959       5.83266303       8.16667826       0.00000000 NULL
P        0.15978640       4.94752648       5.38564351       0.00000000 NULL
P        1.65628023       4.94752648       3.68921649       0.00000000 NULL
P        0.70784951       0.35988690       2.47969436       0.00000000 NULL
P        1.10821712       0.35988690       6.59516564       0.00000000 NULL
6
Lattice="3.0412698858389726 0.0 0.03247599278139913 0.0 6.3183859715032655 0.0 -1.197140901339791 0.0 8.952342156179109" Properties=species:S:1:pos:R:3:initial_magmoms:R:1:castep_labels:S:1 n_minim_iter=6 pbc="T T T"
P        2.27257455       5.90579331       0.90429485       0.00000000 NULL
P       -0.42844556       5.90579331       8.08052330       0.00000000 NULL
P        0.16898013       5.00726659       5.32722281       0.00000000 NULL
P        1.67514886       5.00726659       3.65759534       0.00000000 NULL
P        0.72333285       0.37012296       2.45366656       0.00000000 NULL
P        1.12079614       0.37012296       6.53115159       0.00000000 NULL
6
Lattice="3.0811249124361617 0.0 0.01799831609939725 0.0 6.420735676584056 0.0 -1.2591734868103392 0.0 8.788139000678326" Properties=species:S:1:pos:R:3:initial_magmoms:R:1:castep_labels:S:1 n_minim_iter=7 pbc="T T T"
P        2.29761626       5.99933712       0.88493768       0.00000000 NULL
P       -0.47566483       5.99933712       7.92119964       0.00000000 NULL
P        0.15520642       5.08345692       5.21873381       0.00000000 NULL
P        1.66674502       5.08345692       3.58740351       0.00000000 NULL
P        0.72847352       0.38316183       2.40153154       0.00000000 NULL
P        1.09347791       0.38316183       6.40460578       0.00000000 NULL
6
Lattice="3.1240414904566487 -1.2463516074751892e-17 -0.026266931159607376 -2.845334818193156e-17 6.590096392862651 -4.204086425562084e-17 -1.4151426466962123 -5.249649684448253e-17 8.601693185619766" Properties=species:S:1:pos:R:3:initial_magmoms:R:1:castep_labels:S:1 n_minim_iter=8 pbc="T T T"
P        2.31713996       6.15436085       0.84761079       0.00000000 NULL
P       -0.60824111       6.15436085       7.72781547       0.00000000 NULL
P        0.09741657       5.20938708       5.08593845       0.00000000 NULL
P        1.61148228       5.20938708       3.48948781       0.00000000 NULL
P        0.72015584       0.40464721       2.33202246       0.00000000 NULL
P        0.98874301       0.40464721       6.24340380       0.00000000 NULL
6
Lattice="3.1437808557277664 -1.3894625564658906e-17 -0.07428475086734523 -3.052347328742784e-17 6.7653383061060595 -8.022685929371496e-17 -1.572888178062514 -1.0475061517150615e-16 8.475991503345075" Properties=species:S:1:pos:R:3:initial_magmoms:R:1:castep_labels:S:1 n_minim_iter=9 pbc="T T T"
P        2.32134173       6.31498382       0.82115651       0.00000000 NULL
P       -0.75044904       6.31498382       7.58055025       0.00000000 NULL
P        0.04282076       5.33981446       4.99026407       0.00000000 NULL
P        1.52807192       5.33981446       3.41144268       0.00000000 NULL
P        0.72187300       0.42653859       2.27826097       0.00000000 NULL
P        0.84901968       0.42653859       6.12344578       0.00000000 NULL
6
Lattice="3.188930088804313 -1.4215455840812506e-17 -0.13187046739453168 -2.9659774633471836e-17 6.828484629830756 -8.008521023856321e-17 -1.7712327062245046 -1.0651149250597454e-16 8.482665771079544" Properties=species:S:1:pos:R:3:initial_magmoms:R:1:castep_labels:S:1 n_minim_iter=10 pbc="T T T"
P        2.34053644       6.37268366       0.79775553       0.00000000 NULL
P       -0.92283905       6.37268366       7.55303978       0.00000000 NULL
P       -0.04002025       5.38687528       4.97772916       0.00000000 NULL
P        1.45771764       5.38687528       3.37306615       0.00000000 NULL
P        0.72437888       0.43454272       2.25821722       0.00000000 NULL
P        0.69331851       0.43454272       6.09257809       0.00000000 NULL
6
Lattice="3.1732706632426386 -1.4337825763012543e-17 -0.12402974259208 -2.9979018906681834e-17 6.8316771393780344 -7.903286081125891e-17 -1.7401665235251773 -1.0615818919082161e-16 8.388413548770197" Properties=species:S:1:pos:R:3:initial_magmoms:R:1:castep_labels:S:1 n_minim_iter=11 pbc="T T T"
P        2.33188171       6.37586778       0.80112649       0.00000000 NULL
P       -0.89877756       6.37586778       7.46325732       0.00000000 NULL
P       -0.01839403       5.38912771       4.92298428       0.00000000 NULL
P        1.45149818       5.38912771       3.34139953       0.00000000 NULL
P        0.74164806       0.43480726       2.23482249       0.00000000 NULL
P        0.69145608       0.43480726       6.02956132       0.00000000 NULL
6
Lattice="3.1850692223777566 -1.441576710254327e-17 -0.13648727383711073 -2.98232658662489e-17 6.847478207801345 -7.915528711370602e-17 -1.7839415267748648 -1.0660244486370035e-16 8.40298411519049" Properties=species:S:1:pos:R:3:initial_magmoms:R:1:castep_labels:S:1 n_minim_iter=12 pbc="T T T"
P        2.33716022       6.39039297       0.79744777       0.00000000 NULL
P       -0.93603252       6.39039297       7.46904908       0.00000000 NULL
P       -0.03759752       5.40086067       4.92832971       0.00000000 NULL
P        1.43872522       5.40086067       3.33816714       0.00000000 NULL
P        0.74373461       0.43676619       2.23413964       0.00000000 NULL
P        0.65739310       0.43676619       6.03235720       0.00000000 NULL
6
Lattice="3.1887575866643294 -1.4492468619601577e-17 -0.14403730277137441 -2.974760040653431e-17 6.858549016624906 -7.897615817447248e-17 -1.8089940297751672 -1.0682459796614974e-16 8.3901352736261" Properties=species:S:1:pos:R:3:initial_magmoms:R:1:castep_labels:S:1 n_minim_iter=13 pbc="T T T"
P        2.33780651       6.40069468       0.79522851       0.00000000 NULL
P       -0.95804295       6.40069468       7.45086946       0.00000000 NULL
P       -0.04743621       5.40902139       4.91844509       0.00000000 NULL
P        1.42719977       5.40902139       3.32765288       0.00000000 NULL
P        0.74890913       0.43807368       2.22767121       0.00000000 NULL
P        0.63085443       0.43807368       6.01842677       0.00000000 NULL
6
Lattice="3.2581320164465617 -1.581738972575877e-17 -0.2743706748338179 -2.848946291721429e-17 7.053073125956492 -7.650523957998245e-17 -2.2439006689289958 -1.1085327915269975e-16 8.221348529783963" Properties=species:S:1:pos:R:3:initial_magmoms:R:1:castep_labels:S:1 n_minim_iter=14 pbc="T T T"
P        2.34758040       6.58200597       0.75751060       0.00000000 NULL
P       -1.33334905       6.58200597       7.18946726       0.00000000 NULL
P       -0.22242510       5.55212318       4.77726971       0.00000000 NULL
P        1.23665645       5.55212318       3.16970814       0.00000000 NULL
P        0.83888622       0.46103587       2.12375446       0.00000000 NULL
P        0.17534514       0.46103587       5.82322340       0.00000000 NULL
