9
Lattice="4.03474 -9.344615344262805e-16 0.0 -2.017369999999999 3.494187337665226 0.0 0.0 0.0 14.72057" Properties=species:S:1:pos:R:3:initial_magmoms:R:1:castep_labels:S:1 n_minim_iter=1 pbc="T T T"
P        2.06784924       1.85863057       6.77179194       0.00000000 NULL
P        2.59306668       0.77406208      11.67864861       0.00000000 NULL
P        1.39119409       0.86149468       1.86493527       0.00000000 NULL
P        0.24776511       1.43752230      12.58394404       0.00000000 NULL
P       -0.89632172       2.56085530       2.77023071       0.00000000 NULL
P        0.64855661       2.98999706       7.67708737       0.00000000 NULL
P       -0.78766154       2.80398331       9.44220197       0.00000000 NULL
P        0.80478156       2.77433058      14.34905864       0.00000000 NULL
P       -0.01712001       1.41006077       4.53534530       0.00000000 NULL
9
Lattice="4.030484684608426 4.202167929744166e-16 0.0 -2.0152423423042136 3.4905021264350076 0.0 0.0 0.0 14.70891784992574" Properties=species:S:1:pos:R:3:initial_magmoms:R:1:castep_labels:S:1 n_minim_iter=2 pbc="T T T"
P        2.06580203       1.85653038       6.76637345       0.00000000 NULL
P        2.59014381       0.77319989      11.66934606       0.00000000 NULL
P        1.38978120       0.86077184       1.86340083       0.00000000 NULL
P        0.24772947       1.43607578      12.57408751       0.00000000 NULL
P       -0.89542897       2.55792422       2.76814228       0.00000000 NULL
P        0.64769950       2.98700425       7.67111489       0.00000000 NULL
P       -0.78678102       2.80101079       9.43468182       0.00000000 NULL
P        0.80389468       2.77136908      14.33765444       0.00000000 NULL
P       -0.01711365       1.40862437       4.53170921       0.00000000 NULL
9
Lattice="3.8196598012731395 3.6958925081341636e-16 0.0 -1.9098299006365702 3.3079224217167584 0.0 0.0 0.0 14.12858556966091" Properties=species:S:1:pos:R:3:initial_magmoms:R:1:castep_labels:S:1 n_minim_iter=3 pbc="T T T"
P        1.96440994       1.75250489       6.49641484       0.00000000 NULL
P        2.44533869       0.73044106      11.20594336       0.00000000 NULL
P        1.31974108       0.82497646       1.78688631       0.00000000 NULL
P        0.24592251       1.36440363      12.08322256       0.00000000 NULL
P       -0.85118295       2.41274546       2.66416551       0.00000000 NULL
P        0.60526044       2.83869575       7.37369403       0.00000000 NULL
P       -0.74322696       2.65373956       9.06019792       0.00000000 NULL
P        0.75998946       2.62470607      13.76972645       0.00000000 NULL
P       -0.01676249       1.33739921       4.35066940       0.00000000 NULL
9
Lattice="3.849818352245565 -5.37530699168886e-16 -3.804519334217192e-58 -1.9249091761227821 3.334040493000207 -8.233737437135486e-42 -9.649707832840812e-57 1.700576214156159e-40 14.21587196742432" Properties=species:S:1:pos:R:3:initial_magmoms:R:1:castep_labels:S:1 n_minim_iter=4 pbc="T T T"
P        1.98967775       1.75871171       6.52962977       0.00000000 NULL
P        2.45315933       0.73157315      11.26825376       0.00000000 NULL
P        1.33189045       0.84375562       1.79100578       0.00000000 NULL
P        0.25973284       1.37893452      12.16382560       0.00000000 NULL
P       -0.86058326       2.41963799       2.68657762       0.00000000 NULL
P        0.60085043       2.86950846       7.42520161       0.00000000 NULL
P       -0.74931255       2.67403550       9.11713884       0.00000000 NULL
P        0.76552978       2.64594645      13.85576283       0.00000000 NULL
P       -0.01621722       1.34809903       4.37851485       0.00000000 NULL
9
Lattice="3.8258995329714187 -1.5258172610602375e-16 -8.064161140786023e-43 -1.9129497664857091 3.3133261878802673 -4.008605522987122e-41 -2.977778996643437e-42 7.091086666276773e-41 14.176025785209712" Properties=species:S:1:pos:R:3:initial_magmoms:R:1:castep_labels:S:1 n_minim_iter=5 pbc="T T T"
P        1.98530238       1.74142898       6.50580482       0.00000000 NULL
P        2.42842032       0.72328940      11.23114674       0.00000000 NULL
P        1.32512661       0.84860780       1.78046289       0.00000000 NULL
P        0.26808383       1.37338661      12.13449208       0.00000000 NULL
P       -0.85760398       2.39446547       2.68380822       0.00000000 NULL
P        0.58952015       2.85880029       7.40915015       0.00000000 NULL
P       -0.74461592       2.65679760       9.09234599       0.00000000 NULL
P        0.76021241       2.62978368      13.81768792       0.00000000 NULL
P       -0.01559649       1.34007108       4.36700406       0.00000000 NULL
9
Lattice="3.769201974100111 -4.134489380705299e-16 -8.204577012583497e-43 -1.884600987050055 3.2642246615651516 -2.7222601127163025e-40 -2.9850599959968205e-42 9.260968023816426e-40 14.178958179407207" Properties=species:S:1:pos:R:3:initial_magmoms:R:1:castep_labels:S:1 n_minim_iter=6 pbc="T T T"
P        1.98413506       1.69391316       6.48645924       0.00000000 NULL
P        2.35950529       0.69895671      11.21277863       0.00000000 NULL
P        1.31016261       0.87135478       1.76013985       0.00000000 NULL
P        0.29814365       1.36299517      12.15282446       0.00000000 NULL
P       -0.85328436       2.32452710       2.70018568       0.00000000 NULL
P        0.55514072       2.84092704       7.42650507       0.00000000 NULL
P       -0.73446414       2.61534550       9.09909585       0.00000000 NULL
P        0.74758674       2.59261651      13.82541524       0.00000000 NULL
P       -0.01312259       1.32048730       4.37277645       0.00000000 NULL
9
Lattice="3.6512764322364335 2.6642892474610114e-16 -1.3491345158629407e-41 -1.825638216118217 3.162098146556161 -1.417318377645099e-40 -5.044264263362433e-41 6.1410983424441256e-40 14.703975340060355" Properties=species:S:1:pos:R:3:initial_magmoms:R:1:castep_labels:S:1 n_minim_iter=7 pbc="T T T"
P        1.97566407       1.60484969       6.67867040       0.00000000 NULL
P        2.22764679       0.64869802      11.57999552       0.00000000 NULL
P        1.27360380       0.90855042       1.77734529       0.00000000 NULL
P        0.34581310       1.33505603      12.62520673       0.00000000 NULL
P       -0.84235232       2.19508719       2.82255650       0.00000000 NULL
P        0.49653922       2.79405306       7.72388162       0.00000000 NULL
P       -0.71864023       2.53103457       9.46159659       0.00000000 NULL
P        0.72562215       2.51894156      14.36292170       0.00000000 NULL
P       -0.00698191       1.27422015       4.56027147       0.00000000 NULL
9
Lattice="3.485676438078415 -1.3035966637018431e-16 -1.1242802520029847e-40 -1.7428382190392075 3.0186843447487623 -1.915945783235054e-40 -4.4780554058064105e-40 -1.8845071609620194e-40 14.372460429439846" Properties=species:S:1:pos:R:3:initial_magmoms:R:1:castep_labels:S:1 n_minim_iter=8 pbc="T T T"
P        1.93658899       1.51506829       6.46715834       0.00000000 NULL
P        2.08663136       0.58401494      11.25797849       0.00000000 NULL
P        1.20529432       0.91960111       1.67633820       0.00000000 NULL
P        0.36317997       1.29292408      12.35054261       0.00000000 NULL
P       -0.80472310       2.05769922       2.76890232       0.00000000 NULL
P        0.44154313       2.68674538       7.55972247       0.00000000 NULL
P       -0.69483267       2.42297260       9.29922823       0.00000000 NULL
P        0.70293394       2.40894078      14.09004837       0.00000000 NULL
P       -0.00810127       1.20545530       4.50840809       0.00000000 NULL
9
Lattice="3.6026181267256847 -2.376863377045293e-16 9.78322014023285e-40 -1.8013090633628424 3.119958817878748 1.924693427365827e-39 4.047305391269422e-39 1.3092866124565578e-38 14.764779164649182" Properties=species:S:1:pos:R:3:initial_magmoms:R:1:castep_labels:S:1 n_minim_iter=9 pbc="T T T"
P        2.00709103       1.56788027       6.63496056       0.00000000 NULL
P        2.15558770       0.59782686      11.55655362       0.00000000 NULL
P        1.24124847       0.95425168       1.71336751       0.00000000 NULL
P        0.37516245       1.33784208      12.68686100       0.00000000 NULL
P       -0.83028505       2.12613757       2.84367489       0.00000000 NULL
P        0.45512261       2.77593798       7.76526794       0.00000000 NULL
P       -0.72197048       2.50532521       9.56260308       0.00000000 NULL
P        0.72935145       2.49254098      14.48419613       0.00000000 NULL
P       -0.00738097       1.24205144       4.64101002       0.00000000 NULL
9
Lattice="3.5819082006995853 4.457509456033223e-16 5.438413546400628e-39 -1.7909541003497933 3.102023495829649 1.0831261297402306e-38 2.2358286655313942e-38 6.562423222725987e-38 14.561343197029823" Properties=species:S:1:pos:R:3:initial_magmoms:R:1:castep_labels:S:1 n_minim_iter=10 pbc="T T T"
P        1.99890812       1.55896413       6.53971546       0.00000000 NULL
P        2.14160259       0.59143621      11.39349653       0.00000000 NULL
P        1.23235160       0.95162314       1.68593440       0.00000000 NULL
P        0.37394637       1.33171791      12.51140253       0.00000000 NULL
P       -0.82462574       2.11231748       2.80384039       0.00000000 NULL
P        0.45067938       2.76001160       7.65762146       0.00000000 NULL
P       -0.71865318       2.49203614       9.43532367       0.00000000 NULL
P        0.72653910       2.47837734      14.28910473       0.00000000 NULL
P       -0.00788591       1.23363351       4.58154260       0.00000000 NULL
9
Lattice="3.5855872765726815 -6.086963944224102e-16 1.4434949469039278e-38 -1.7927936382863405 3.105209668998202 2.894999239834847e-38 5.906793329422412e-38 1.7053982355751456e-37 14.486564155259538" Properties=species:S:1:pos:R:3:initial_magmoms:R:1:castep_labels:S:1 n_minim_iter=11 pbc="T T T"
P        2.00471263       1.56096180       6.50152550       0.00000000 NULL
P        2.14226990       0.58859671      11.33038021       0.00000000 NULL
P        1.23139839       0.95565116       1.67267078       0.00000000 NULL
P        0.37515132       1.33456701      12.44643090       0.00000000 NULL
P       -0.82460036       2.11303559       2.78872146       0.00000000 NULL
P        0.44944905       2.76281673       7.61757618       0.00000000 NULL
P       -0.72083253       2.49570897       9.39219458       0.00000000 NULL
P        0.72897001       2.48161446      14.22104930       0.00000000 NULL
P       -0.00813747       1.23309589       4.56333986       0.00000000 NULL
9
Lattice="3.597204940409751 -3.2717891691090705e-16 8.244550166542442e-38 -1.7986024702048755 3.115270861013732 1.648835174332691e-37 3.3491078932134996e-37 9.667805974276053e-37 14.269509298855054" Properties=species:S:1:pos:R:3:initial_magmoms:R:1:castep_labels:S:1 n_minim_iter=12 pbc="T T T"
P        2.02526873       1.56748118       6.38727535       0.00000000 NULL
P        2.14344663       0.57759610      11.14377845       0.00000000 NULL
P        1.22709205       0.97019358       1.63077225       0.00000000 NULL
P        0.37950312       1.34425716      12.25712773       0.00000000 NULL
P       -0.82419318       2.11448294       2.74412153       0.00000000 NULL
P        0.44469006       2.77180162       7.50062463       0.00000000 NULL
P       -0.72883975       2.50799005       9.27112220       0.00000000 NULL
P        0.73780050       2.49246957      14.02762530       0.00000000 NULL
P       -0.00896075       1.23008209       4.51461910       0.00000000 NULL
9
Lattice="3.591125597805931 -4.51013234433694e-16 3.53777450698194e-37 -1.7955627989029654 3.1100059958805146 7.073871609996971e-37 1.4143307178422328e-36 4.08290042968969e-36 14.109925488741549" Properties=species:S:1:pos:R:3:initial_magmoms:R:1:castep_labels:S:1 n_minim_iter=13 pbc="T T T"
P        2.04614718       1.56723986       6.28822559       0.00000000 NULL
P        2.12975875       0.55437062      10.99153409       0.00000000 NULL
P        1.21078247       0.98839550       1.58491710       0.00000000 NULL
P        0.38473870       1.35095320      12.11464220       0.00000000 NULL
P       -0.81797235       2.10133590       2.70802520       0.00000000 NULL
P        0.43323365       2.76772288       7.41133370       0.00000000 NULL
P       -0.73868022       2.51118683       9.20046275       0.00000000 NULL
P        0.74852890       2.49412842      13.90377124       0.00000000 NULL
P       -0.00984867       1.21469674       4.49715425       0.00000000 NULL
9
Lattice="3.584345870255862 4.111440508377583e-17 1.3354701713443165e-36 -1.7921729351279314 3.1041345795914177 2.6707394366063636e-36 5.282583032405362e-36 1.5250234133093372e-35 13.970409696318423" Properties=species:S:1:pos:R:3:initial_magmoms:R:1:castep_labels:S:1 n_minim_iter=14 pbc="T T T"
P        2.13651771       1.58015021       6.12792141       0.00000000 NULL
P        2.09236431       0.46378086      10.78472464       0.00000000 NULL
P        1.14763679       1.06020350       1.47111818       0.00000000 NULL
P        0.40697352       1.39191038      11.97878105       0.00000000 NULL
P       -0.79022994       2.05572998       2.66517459       0.00000000 NULL
P        0.38325642       2.76062879       7.32197782       0.00000000 NULL
P       -0.78811114       2.53534743       9.22369255       0.00000000 NULL
P        0.79755792       2.51898513      13.88049578       0.00000000 NULL
P       -0.00944678       1.15393659       4.56688931       0.00000000 NULL
