14
Lattice="3.5911699999999995 5.387682938514743e-17 6.659410501521843e-16 -0.16503636323703455 6.3336601862516675 3.0967035692338592e-15 -0.22797009512497945 -1.5165022677224376 13.528609798136003" Properties=species:S:1:pos:R:3:initial_magmoms:R:1:castep_labels:S:1 n_minim_iter=1 pbc="T T T"
P        0.58274683       4.42284358       2.76854341       0.00000000 NULL
P        2.61541671       0.39431434      10.76006639       0.00000000 NULL
P        2.25034387       4.79519190       0.92176506       0.00000000 NULL
P        0.94781967       0.02196602      12.60684474       0.00000000 NULL
P        0.43965371       5.71056501       0.96090198       0.00000000 NULL
P        2.75850983      -0.89340709      12.56770782       0.00000000 NULL
P        2.04853202       0.27280129       2.05294489       0.00000000 NULL
P        1.14963152       4.54435663      11.47566491       0.00000000 NULL
P        2.10049983       2.89273898      12.48189314       0.00000000 NULL
P        1.09766371       1.92441894       1.04671666       0.00000000 NULL
P        2.95614508       3.80152375      10.87425326       0.00000000 NULL
P        0.24201846       1.01563417       2.65435654       0.00000000 NULL
P        2.20755605       2.38436083       9.41407523       0.00000000 NULL
P        0.99060749       2.43279709       4.11453457       0.00000000 NULL
14
Lattice="3.611431898096116 0.0020851397284943024 -0.0005473163244673191 -0.16229001134974558 6.350038201295185 0.008385308163383818 -0.23219870445091703 -1.5027218781446938 13.572034539828563" Properties=species:S:1:pos:R:3:initial_magmoms:R:1:castep_labels:S:1 n_minim_iter=2 pbc="T T T"
P        0.58820323       4.43819090       2.78366632       0.00000000 NULL
P        2.62873995       0.41121056      10.79620621       0.00000000 NULL
P        2.26562999       4.80980536       0.93109214       0.00000000 NULL
P        0.95131320       0.03959611      12.64878040       0.00000000 NULL
P        0.44521896       5.72705121       0.97125236       0.00000000 NULL
P        2.77172422      -0.87764974      12.60862017       0.00000000 NULL
P        2.05999162       0.27737131       2.06001934       0.00000000 NULL
P        1.15695156       4.57203015      11.51985320       0.00000000 NULL
P        2.11197248       2.91761344      12.52719410       0.00000000 NULL
P        1.10497070       1.93178802       1.05267844       0.00000000 NULL
P        2.97346325       3.82728436      10.91484373       0.00000000 NULL
P        0.24347994       1.02211711       2.66502881       0.00000000 NULL
P        2.21997279       2.40414468       9.44848310       0.00000000 NULL
P        0.99697039       2.44525679       4.13138943       0.00000000 NULL
14
Lattice="3.9677225479609457 0.03902845770418048 -0.013061600863150308 -0.113507717807088 6.63123971515594 0.1601772096307172 -0.3175606091382038 -1.2498062018220275 14.324380169607469" Properties=species:S:1:pos:R:3:initial_magmoms:R:1:castep_labels:S:1 n_minim_iter=3 pbc="T T T"
P        0.68227627       4.70516662       3.04988611       0.00000000 NULL
P        2.85437795       0.71529535      11.42160967       0.00000000 NULL
P        2.53396267       5.06261426       1.09567511       0.00000000 NULL
P        1.00269155       0.35784771      13.37582067       0.00000000 NULL
P        0.54278686       6.01111723       1.15604591       0.00000000 NULL
P        2.99386736      -0.59065526      13.31544987       0.00000000 NULL
P        2.25958474       0.35899767       2.18131420       0.00000000 NULL
P        1.27706948       5.06146430      12.29018158       0.00000000 NULL
P        2.30355701       3.36026848      13.31426565       0.00000000 NULL
P        1.23309721       2.06019349       1.15723013       0.00000000 NULL
P        3.26956014       4.28334506      11.62002300       0.00000000 NULL
P        0.26709408       1.13711692       2.85147277       0.00000000 NULL
P        2.43095901       2.75583502      10.04612122       0.00000000 NULL
P        1.10569522       2.66462695       4.42537456       0.00000000 NULL
14
Lattice="4.104100828223853 0.06405371866283009 -0.026651536550107637 -0.07563868805208343 6.7143202311979655 0.2987757976162894 -0.38798166177821847 -0.9768519647977049 14.539932189193497" Properties=species:S:1:pos:R:3:initial_magmoms:R:1:castep_labels:S:1 n_minim_iter=4 pbc="T T T"
P        0.72537519       4.82550608       3.19526813       0.00000000 NULL
P        2.91510529       0.97601590      11.61678832       0.00000000 NULL
P        2.64896700       5.15929092       1.20995852       0.00000000 NULL
P        0.99151348       0.64223106      13.60209793       0.00000000 NULL
P        0.59472793       6.10828863       1.29425900       0.00000000 NULL
P        3.04575255      -0.30676664      13.51779745       0.00000000 NULL
P        2.33029293       0.42241583       2.21840123       0.00000000 NULL
P        1.31018755       5.37910616      12.59365522       0.00000000 NULL
P        2.35307202       3.68182786      13.59713519       0.00000000 NULL
P        1.28740846       2.11969412       1.21492126       0.00000000 NULL
P        3.36646228       4.58704329      11.88462251       0.00000000 NULL
P        0.27401819       1.21447869       2.92743394       0.00000000 NULL
P        2.49705281       3.00604709      10.26465069       0.00000000 NULL
P        1.14342767       2.79547489       4.54740576       0.00000000 NULL
14
Lattice="4.201396534035408 0.09510416926946787 -0.036894797823108554 -0.02534709135053886 6.73480702985169 0.46112218098710916 -0.44585853056768865 -0.6383058847955623 14.615151184469488" Properties=species:S:1:pos:R:3:initial_magmoms:R:1:castep_labels:S:1 n_minim_iter=5 pbc="T T T"
P        0.77260870       4.91239758       3.33074707       0.00000000 NULL
P        2.95758221       1.27920773      11.70863150       0.00000000 NULL
P        2.74826210       5.21594294       1.33460349       0.00000000 NULL
P        0.98192881       0.97566237      13.70477508       0.00000000 NULL
P        0.65194072       6.15118636       1.44517607       0.00000000 NULL
P        3.07825019       0.04041895      13.59420249       0.00000000 NULL
P        2.38061934       0.49517042       2.23858314       0.00000000 NULL
P        1.34957157       5.69643489      12.80079543       0.00000000 NULL
P        2.39490817       4.02515537      13.76944268       0.00000000 NULL
P        1.33528275       2.16644994       1.26993589       0.00000000 NULL
P        3.44617132       4.89639819      12.05560031       0.00000000 NULL
P        0.28401959       1.29520712       2.98377825       0.00000000 NULL
P        2.55304317       3.27247214      10.40396334       0.00000000 NULL
P        1.17714774       2.91913317       4.63541523       0.00000000 NULL
14
Lattice="4.2183187873365995 0.10811375098422721 -0.04207236029408049 -0.0031800865571277215 6.700809157848382 0.5794031448256567 -0.47193138432917225 -0.37899635052032415 14.640435179444827" Properties=species:S:1:pos:R:3:initial_magmoms:R:1:castep_labels:S:1 n_minim_iter=6 pbc="T T T"
P        0.78865357       4.93737129       3.42554301       0.00000000 NULL
P        2.95455374       1.49255527      11.75222295       0.00000000 NULL
P        2.77468629       5.21333388       1.42465392       0.00000000 NULL
P        0.96852103       1.21659268      13.75311205       0.00000000 NULL
P        0.67243599       6.13344971       1.55259035       0.00000000 NULL
P        3.07077133       0.29647685      13.62517561       0.00000000 NULL
P        2.38660963       0.54079776       2.25184357       0.00000000 NULL
P        1.35659769       5.88912880      12.92592239       0.00000000 NULL
P        2.39216489       4.24527718      13.87066445       0.00000000 NULL
P        1.35104243       2.18464937       1.30710151       0.00000000 NULL
P        3.45476897       5.07978033      12.15311604       0.00000000 NULL
P        0.28843834       1.35014622       3.02464992       0.00000000 NULL
P        2.56194798       3.44341743      10.49161980       0.00000000 NULL
P        1.18125933       2.98650913       4.68614616       0.00000000 NULL
14
Lattice="4.202368172471028 0.09640875969369975 -0.03982690355452309 -0.023090869351714356 6.697691097064021 0.6325994213198839 -0.4575169129808257 -0.26353101655452726 14.760175954629272" Properties=species:S:1:pos:R:3:initial_magmoms:R:1:castep_labels:S:1 n_minim_iter=7 pbc="T T T"
P        0.77444700       4.95103068       3.49428411       0.00000000 NULL
P        2.94731339       1.57953816      11.85866437       0.00000000 NULL
P        2.74992702       5.20804015       1.47526418       0.00000000 NULL
P        0.97183337       1.32252869      13.87768429       0.00000000 NULL
P        0.65249081       6.12983514       1.60710961       0.00000000 NULL
P        3.06926958       0.40073370      13.74583887       0.00000000 NULL
P        2.37725064       0.55131213       2.27976921       0.00000000 NULL
P        1.34450975       5.97925671      13.07317926       0.00000000 NULL
P        2.37696809       4.33586775      14.02175524       0.00000000 NULL
P        1.34479230       2.19470109       1.33119323       0.00000000 NULL
P        3.43289764       5.14897149      12.28036353       0.00000000 NULL
P        0.28886275       1.38159735       3.07258495       0.00000000 NULL
P        2.55373221       3.51546798      10.61588583       0.00000000 NULL
P        1.16802818       3.01510086       4.73706264       0.00000000 NULL
14
Lattice="4.178811798592701 0.08574608722314382 -0.03651958140153503 -0.04081380806802844 6.691588579400624 0.6667298779256084 -0.43905953372561773 -0.18804882517704644 14.786178376191682" Properties=species:S:1:pos:R:3:initial_magmoms:R:1:castep_labels:S:1 n_minim_iter=8 pbc="T T T"
P        0.76079324       4.95667630       3.52834512       0.00000000 NULL
P        2.93814522       1.63260954      11.88804355       0.00000000 NULL
P        2.72186193       5.19894877       1.50470046       0.00000000 NULL
P        0.97707653       1.39033708      13.91168822       0.00000000 NULL
P        0.63384265       6.12355033       1.63870429       0.00000000 NULL
P        3.06509581       0.46573551      13.77768439       0.00000000 NULL
P        2.36429026       0.55609401       2.29109496       0.00000000 NULL
P        1.33464819       6.03319183      13.12529371       0.00000000 NULL
P        2.36366585       4.39074560      14.07334689       0.00000000 NULL
P        1.33527261       2.19854024       1.34304178       0.00000000 NULL
P        3.41011851       5.18795199      12.32272853       0.00000000 NULL
P        0.28881995       1.40133385       3.09366014       0.00000000 NULL
P        2.54298183       3.55868364      10.66186766       0.00000000 NULL
P        1.15595663       3.03060220       4.75452102       0.00000000 NULL
14
Lattice="4.166824073490457 0.07948778132685216 -0.0340862063516127 -0.05130052196193082 6.696978394329016 0.6860633393855018 -0.4264887672459891 -0.1473383240226938 14.810829508388156" Properties=species:S:1:pos:R:3:initial_magmoms:R:1:castep_labels:S:1 n_minim_iter=9 pbc="T T T"
P        0.75343421       4.96608899       3.54985070       0.00000000 NULL
P        2.93560057       1.66303886      11.91295595       0.00000000 NULL
P        2.70664170       5.20005456       1.52220252       0.00000000 NULL
P        0.98239309       1.42907330      13.94060413       0.00000000 NULL
P        0.62333063       6.12801283       1.65726909       0.00000000 NULL
P        3.06570416       0.50111502      13.80553755       0.00000000 NULL
P        2.35801171       0.55905110       2.29942276       0.00000000 NULL
P        1.33102308       6.07007675      13.16338388       0.00000000 NULL
P        2.35866188       4.42571800      14.11225979       0.00000000 NULL
P        1.33037290       2.20340985       1.35054685       0.00000000 NULL
P        3.39987915       5.21505795      12.35499736       0.00000000 NULL
P        0.28915563       1.41406990       3.10780928       0.00000000 NULL
P        2.53898525       3.58649492      10.69522428       0.00000000 NULL
P        1.15004953       3.04263293       4.76758236       0.00000000 NULL
14
Lattice="4.112429022118138 0.0546589548825164 -0.023071589003095146 -0.09259073881751312 6.725002733979229 0.7689028990468368 -0.3710567278751849 0.02582637197821809 14.897398665520974" Properties=species:S:1:pos:R:3:initial_magmoms:R:1:castep_labels:S:1 n_minim_iter=10 pbc="T T T"
P        0.72431702       5.01070591       3.63788898       0.00000000 NULL
P        2.92446454       1.79478215      12.00534099       0.00000000 NULL
P        2.64223592       5.20937808       1.59565259       0.00000000 NULL
P        1.00654563       1.59610998      14.04757738       0.00000000 NULL
P        0.58145193       6.15239305       1.73559846       0.00000000 NULL
P        3.06732963       0.65309502      13.90763151       0.00000000 NULL
P        2.32970366       0.57330823       2.33236010       0.00000000 NULL
P        1.31907790       6.23217983      13.31086988       0.00000000 NULL
P        2.33937494       4.57960137      14.26171142       0.00000000 NULL
P        1.30940662       2.22588669       1.38151856       0.00000000 NULL
P        3.35774825       5.33598106      12.47877927       0.00000000 NULL
P        0.29103330       1.46950700       3.16445071       0.00000000 NULL
P        2.52249734       3.70908566      10.82488015       0.00000000 NULL
P        1.12628421       3.09640240       4.81834983       0.00000000 NULL
14
Lattice="4.086753959984511 0.04811525845176074 -0.01603468826688322 -0.10295177176053198 6.746269787679524 0.801130974460505 -0.34015421947766983 0.09075116314577229 14.911183103772997" Properties=species:S:1:pos:R:3:initial_magmoms:R:1:castep_labels:S:1 n_minim_iter=11 pbc="T T T"
P        0.71822957       5.03621284       3.66848340       0.00000000 NULL
P        2.92541840       1.84892337      12.02779599       0.00000000 NULL
P        2.61900228       5.22178939       1.62369218       0.00000000 NULL
P        1.02464569       1.66334682      14.07258721       0.00000000 NULL
P        0.57060693       6.17227264       1.76523623       0.00000000 NULL
P        3.07304103       0.71286357      13.93104316       0.00000000 NULL
P        2.31759442       0.58138060       2.34376296       0.00000000 NULL
P        1.32605354       6.30375561      13.35251643       0.00000000 NULL
P        2.34121762       4.64653869      14.30360623       0.00000000 NULL
P        1.30243035       2.23859752       1.39267316       0.00000000 NULL
P        3.34943047       5.39189773      12.51354944       0.00000000 NULL
P        0.29421750       1.49323848       3.18272995       0.00000000 NULL
P        2.52228124       3.76315374      10.86318733       0.00000000 NULL
P        1.12136673       3.12198247       4.83309206       0.00000000 NULL
14
Lattice="4.021433907601902 0.03525390527667199 0.0044670251418185754 -0.12263317271194862 6.817804881025787 0.8813000724757915 -0.2533426871049968 0.24783365807225233 14.954505597345307" Properties=species:S:1:pos:R:3:initial_magmoms:R:1:castep_labels:S:1 n_minim_iter=12 pbc="T T T"
P        0.70941657       5.11325237       3.74706409       0.00000000 NULL
P        2.93604148       1.98764007      12.09320860       0.00000000 NULL
P        2.56549308       5.26730219       1.69483562       0.00000000 NULL
P        1.07996497       1.83359025      14.14543708       0.00000000 NULL
P        0.54992147       6.23937393       1.84022036       0.00000000 NULL
P        3.09553658       0.86151852      14.00005233       0.00000000 NULL
P        2.28832110       0.60471422       2.37549317       0.00000000 NULL
P        1.35713695       6.49617823      13.46477953       0.00000000 NULL
P        2.35789602       4.82365959      14.41850133       0.00000000 NULL
P        1.28756203       2.27723286       1.42177137       0.00000000 NULL
P        3.34035957       5.54442921      12.60930224       0.00000000 NULL
P        0.30509848       1.55646323       3.23097045       0.00000000 NULL
P        2.53076070       3.90750445      10.96706338       0.00000000 NULL
P        1.11469734       3.19338799       4.87320932       0.00000000 NULL
14
Lattice="3.9679175165281033 0.03228992468425189 0.027616466934448893 -0.12540126648490804 6.891842662835492 0.9357333017115009 -0.16148549707754006 0.3488681712499569 14.964287233035668" Properties=species:S:1:pos:R:3:initial_magmoms:R:1:castep_labels:S:1 n_minim_iter=13 pbc="T T T"
P        0.71637053       5.18360583       3.79855029       0.00000000 NULL
P        2.96466022       2.08939492      12.12908671       0.00000000 NULL
P        2.53303115       5.31665152       1.74494274       0.00000000 NULL
P        1.14799960       1.95634924      14.18269426       0.00000000 NULL
P        0.54687422       6.30935814       1.89187338       0.00000000 NULL
P        3.13415654       0.96364261      14.03576362       0.00000000 NULL
P        2.26795157       0.62636374       2.40042617       0.00000000 NULL
P        1.41307918       6.64663702      13.52721083       0.00000000 NULL
P        2.39944014       4.95884720      14.48580252       0.00000000 NULL
P        1.28159061       2.31415356       1.44183448       0.00000000 NULL
P        3.36042205       5.66637859      12.66470335       0.00000000 NULL
P        0.32060870       1.60662217       3.26293365       0.00000000 NULL
P        2.55870462       4.02042496      11.03189107       0.00000000 NULL
P        1.12232614       3.25257580       4.89574593       0.00000000 NULL
14
Lattice="3.906416842658907 0.034832793917802314 0.051341601609442455 -0.11809013468792198 6.980023332017685 0.9869799270833616 -0.06927818387899569 0.4393561729286763 14.972294284725841" Properties=species:S:1:pos:R:3:initial_magmoms:R:1:castep_labels:S:1 n_minim_iter=14 pbc="T T T"
P        0.72958956       5.26243719       3.84720005       0.00000000 NULL
P        2.98945896       2.19177511      12.16341576       0.00000000 NULL
P        2.50276326       5.37597577       1.79080438       0.00000000 NULL
P        1.21628526       2.07823653      14.21981143       0.00000000 NULL
P        0.55166058       6.39355016       1.94188021       0.00000000 NULL
P        3.16738795       1.06066213      14.06873560       0.00000000 NULL
P        2.24310895       0.65216556       2.42572199       0.00000000 NULL
P        1.47593957       6.80204674      13.58489383       0.00000000 NULL
P        2.44201377       5.09679342      14.55015210       0.00000000 NULL
P        1.27703476       2.35741888       1.46046371       0.00000000 NULL
P        3.38174489       5.79496646      12.71578002       0.00000000 NULL
P        0.33730363       1.65924584       3.29483579       0.00000000 NULL
P        2.58671463       4.13788541      11.09477570       0.00000000 NULL
P        1.13233389       3.31632689       4.91584012       0.00000000 NULL
14
Lattice="3.8114399713256004 0.038756711629085186 0.08145948815166357 -0.10680484359377822 7.154749945767668 1.0655398794642887 0.048553718052478344 0.5679875568779874 14.996676997664274" Properties=species:S:1:pos:R:3:initial_magmoms:R:1:castep_labels:S:1 n_minim_iter=15 pbc="T T T"
P        0.74570741       5.40843493       3.92251010       0.00000000 NULL
P        3.00748143       2.35305928      12.22116626       0.00000000 NULL
P        2.45430066       5.48881126       1.85450425       0.00000000 NULL
P        1.29888818       2.27268295      14.28917212       0.00000000 NULL
P        0.55644030       6.56046718       2.02128630       0.00000000 NULL
P        3.19674854       1.20102703      14.12239007       0.00000000 NULL
P        2.20050021       0.69580297       2.46352432       0.00000000 NULL
P        1.55268864       7.06569124      13.68015205       0.00000000 NULL
P        2.48435667       5.32384467      14.65596056       0.00000000 NULL
P        1.26883218       2.43764955       1.48771580       0.00000000 NULL
P        3.39597552       6.01318174      12.79685395       0.00000000 NULL
P        0.35721332       1.74831247       3.34682242       0.00000000 NULL
P        2.61263905       4.33289201      11.19632636       0.00000000 NULL
P        1.14054979       3.42860221       4.94735001       0.00000000 NULL
14
Lattice="3.638686745919849 0.04166218965778712 0.1102604682324843 -0.09374144793975701 7.330594329135967 1.1454763779916228 0.166791959775054 0.6992381785525186 14.897138517122404" Properties=species:S:1:pos:R:3:initial_magmoms:R:1:castep_labels:S:1 n_minim_iter=16 pbc="T T T"
P        0.75126971       5.54215618       3.97379313       0.00000000 NULL
P        2.96046755       2.52933852      12.17908223       0.00000000 NULL
P        2.35481875       5.56629917       1.89597477       0.00000000 NULL
P        1.35691851       2.50519553      14.25690059       0.00000000 NULL
P        0.54758596       6.73332114       2.10245473       0.00000000 NULL
P        3.16415130       1.33817355      14.05042063       0.00000000 NULL
P        2.10851131       0.75141502       2.48818644       0.00000000 NULL
P        1.60322595       7.32007968      13.66468892       0.00000000 NULL
P        2.46912243       5.54365841      14.65027988       0.00000000 NULL
P        1.24261483       2.52783628       1.50259548       0.00000000 NULL
P        3.34296049       6.21882145      12.76542708       0.00000000 NULL
P        0.36877676       1.85267325       3.38744829       0.00000000 NULL
P        2.58733188       4.53275893      11.22424080       0.00000000 NULL
P        1.12440537       3.53873577       4.92863456       0.00000000 NULL
14
Lattice="3.719828075521403 0.03424862447760852 0.11235686578709506 -0.11054551807999961 7.461990755051488 1.1651549974425 0.1726692187959048 0.7105684632312242 15.32323767436477" Properties=species:S:1:pos:R:3:initial_magmoms:R:1:castep_labels:S:1 n_minim_iter=17 pbc="T T T"
P        0.76079844       5.63078717       4.08005258       0.00000000 NULL
P        3.02115333       2.57602067      12.52069696       0.00000000 NULL
P        2.39699346       5.63986315       1.93468928       0.00000000 NULL
P        1.38495832       2.56694469      14.66606026       0.00000000 NULL
P        0.54462091       6.85454601       2.15502643       0.00000000 NULL
P        3.23733087       1.35226183      14.44572310       0.00000000 NULL
P        2.15289686       0.76540010       2.56200407       0.00000000 NULL
P        1.62905492       7.44140774      14.03874547       0.00000000 NULL
P        2.50985045       5.62706150      15.06109231       0.00000000 NULL
P        1.27210133       2.57974635       1.53965722       0.00000000 NULL
P        3.41032445       6.31219929      13.10825352       0.00000000 NULL
P        0.37162733       1.89460855       3.49249602       0.00000000 NULL
P        2.63921062       4.60861762      11.54501509       0.00000000 NULL
P        1.14274116       3.59819023       5.05573445       0.00000000 NULL
14
Lattice="3.6542581160199914 0.042949261427252416 0.11974945110402702 -0.09218707069468822 7.341710008562435 1.1515943782328937 0.20100674010297678 0.7104802430529115 15.087008019573634" Properties=species:S:1:pos:R:3:initial_magmoms:R:1:castep_labels:S:1 n_minim_iter=18 pbc="T T T"
P        0.76704251       5.54137051       4.02176168       0.00000000 NULL
P        2.99603528       2.55376900      12.33659016       0.00000000 NULL
P        2.36829751       5.55133480       1.91279524       0.00000000 NULL
P        1.39478028       2.54380471      14.44555661       0.00000000 NULL
P        0.55197506       6.74528399       2.12859106       0.00000000 NULL
P        3.21110273       1.34985553      14.22976079       0.00000000 NULL
P        2.11971303       0.76337852       2.52924753       0.00000000 NULL
P        1.64336476       7.33176099      13.82910432       0.00000000 NULL
P        2.50408068       5.55226108      14.83764492       0.00000000 NULL
P        1.25899711       2.54287844       1.52070693       0.00000000 NULL
P        3.38714922       6.22528780      12.91627565       0.00000000 NULL
P        0.37592857       1.86985171       3.44207619       0.00000000 NULL
P        2.62409932       4.54927099      11.37923712       0.00000000 NULL
P        1.13897847       3.54586853       4.97911473       0.00000000 NULL
14
Lattice="3.6512473613251375 0.04299940358461963 0.12277653150874523 -0.09196027346949391 7.342177606126068 1.1533823765154103 0.21258026933212687 0.7144808316165531 15.092448123530744" Properties=species:S:1:pos:R:3:initial_magmoms:R:1:castep_labels:S:1 n_minim_iter=19 pbc="T T T"
P        0.76997039       5.54005155       4.02512034       0.00000000 NULL
P        3.00189697       2.55960629      12.34348670       0.00000000 NULL
P        2.36703034       5.54650723       1.91517461       0.00000000 NULL
P        1.40483702       2.55315061      14.45343242       0.00000000 NULL
P        0.55191983       6.74577874       2.13241068       0.00000000 NULL
P        3.21994752       1.35387910      14.23619635       0.00000000 NULL
P        2.11904539       0.76596798       2.53311803       0.00000000 NULL
P        1.65282196       7.33368986      13.83548900       0.00000000 NULL
P        2.51127955       5.55400901      14.84583569       0.00000000 NULL
P        1.26058780       2.54564884       1.52277135       0.00000000 NULL
P        3.39409859       6.22606245      12.92210421       0.00000000 NULL
P        0.37776877       1.87359539       3.44650282       0.00000000 NULL
P        2.63052015       4.55286846      11.38874850       0.00000000 NULL
P        1.14134721       3.54678938       4.97985853       0.00000000 NULL
14
Lattice="3.591392756178599 0.04555861641911594 0.17418412299908909 -0.08469596384495157 7.3448433935329716 1.1712048816357692 0.4089611852722427 0.7567668058707273 15.192809437106883" Properties=species:S:1:pos:R:3:initial_magmoms:R:1:castep_labels:S:1 n_minim_iter=20 pbc="T T T"
P        0.82062120       5.50857696       4.07464049       0.00000000 NULL
P        3.09503677       2.63859185      12.46355795       0.00000000 NULL
P        2.34174143       5.46078941       1.94801476       0.00000000 NULL
P        1.57391655       2.68637941      14.59018369       0.00000000 NULL
P        0.55275367       6.74612933       2.18617288       0.00000000 NULL
P        3.36290431       1.40103948      14.35202556       0.00000000 NULL
P        2.10328865       0.80655998       2.59865604       0.00000000 NULL
P        1.81236933       7.34060884      13.93954240       0.00000000 NULL
P        2.63011718       5.55661898      14.98276612       0.00000000 NULL
P        1.28554080       2.59054984       1.55543232       0.00000000 NULL
P        3.50653714       6.21591830      13.01754782       0.00000000 NULL
P        0.40912084       1.93125051       3.52065062       0.00000000 NULL
P        2.73570757       4.59461612      11.54955586       0.00000000 NULL
P        1.17995040       3.55255270       4.98864258       0.00000000 NULL
