4
Lattice="2.324730000000001 -7.512791107273708e-17 0.0 -0.2117212636044591 5.395867873376603 0.0 0.0 0.0 7.30078" Properties=species:S:1:pos:R:3:initial_magmoms:R:1:castep_labels:S:1 n_minim_iter=1 pbc="T T T"
P        0.44606584       4.24773349       4.79301902       0.00000000 NULL
P        0.44606584       4.24773349       2.50776098       0.00000000 NULL
P        1.42652706       0.77451262       2.63449376       0.00000000 NULL
P        1.42652706       0.77451262       4.66628624       0.00000000 NULL
4
Lattice="2.3288934491214954 9.473932046975985e-06 0.0 -0.21207845373982456 5.402866798420519 0.0 0.0 0.0 7.307549996159905" Properties=species:S:1:pos:R:3:initial_magmoms:R:1:castep_labels:S:1 n_minim_iter=2 pbc="T T T"
P        0.44688813       4.25288228       4.79752739       0.00000000 NULL
P        0.44688813       4.25288228       2.51002261       0.00000000 NULL
P        1.42907894       0.77588657       2.63655189       0.00000000 NULL
P        1.42907894       0.77588657       4.67099811       0.00000000 NULL
4
Lattice="2.5352275633553587 -0.0002035261401099918 0.0 -0.23136440937195352 5.744722987115268 0.0 0.0 0.0 7.633223823908534" Properties=species:S:1:pos:R:3:initial_magmoms:R:1:castep_labels:S:1 n_minim_iter=3 pbc="T T T"
P        0.48647015       4.50367305       5.01435040       0.00000000 NULL
P        0.48647015       4.50367305       2.61887343       0.00000000 NULL
P        1.55524092       0.84309148       2.73501329       0.00000000 NULL
P        1.55524092       0.84309148       4.89821054       0.00000000 NULL
4
Lattice="2.572066922978398 -0.02561962354994995 0.0 -0.29371211394415525 5.792127092324932 0.0 0.0 0.0 7.62124029349339" Properties=species:S:1:pos:R:3:initial_magmoms:R:1:castep_labels:S:1 n_minim_iter=4 pbc="T T T"
P        0.45009019       4.53137512       5.00112176       0.00000000 NULL
P        0.45009019       4.53137512       2.62011854       0.00000000 NULL
P        1.56638751       0.83688379       2.72558057       0.00000000 NULL
P        1.56638751       0.83688379       4.89565972       0.00000000 NULL
4
Lattice="2.581378039747969 -0.059276195607916915 0.0 -0.3726794681330682 5.82354332760533 0.0 0.0 0.0 7.589067271345947" Properties=species:S:1:pos:R:3:initial_magmoms:R:1:castep_labels:S:1 n_minim_iter=5 pbc="T T T"
P        0.39447688       4.54482500       4.97312481       0.00000000 NULL
P        0.39447688       4.54482500       2.61594246       0.00000000 NULL
P        1.55679081       0.82271113       2.70863601       0.00000000 NULL
P        1.55679081       0.82271113       4.88043127       0.00000000 NULL
4
Lattice="2.5774601851238463 -0.07970007514126032 0.0 -0.4197279693749517 5.847268178727519 0.0 0.0 0.0 7.575179643674333" Properties=species:S:1:pos:R:3:initial_magmoms:R:1:castep_labels:S:1 n_minim_iter=6 pbc="T T T"
P        0.35899618       4.55634811       4.96035697       0.00000000 NULL
P        0.35899618       4.55634811       2.61482267       0.00000000 NULL
P        1.54499278       0.81508719       2.70060865       0.00000000 NULL
P        1.54499278       0.81508719       4.87457099       0.00000000 NULL
4
Lattice="2.5630591112415733 -0.13046222535803398 0.0 -0.5362390661382708 5.91699208264832 0.0 0.0 0.0 7.548071244037498" Properties=species:S:1:pos:R:3:initial_magmoms:R:1:castep_labels:S:1 n_minim_iter=7 pbc="T T T"
P        0.27009646       4.59270935       4.93438209       0.00000000 NULL
P        0.27009646       4.59270935       2.61368915       0.00000000 NULL
P        1.51262794       0.79842964       2.68384042       0.00000000 NULL
P        1.51262794       0.79842964       4.86423083       0.00000000 NULL
4
Lattice="2.541510800664314 -0.18239099849985393 0.0 -0.654807056036387 6.002581377691696 0.0 0.0 0.0 7.533926595359623" Properties=species:S:1:pos:R:3:initial_magmoms:R:1:castep_labels:S:1 n_minim_iter=8 pbc="T T T"
P        0.17822421       4.63992207       4.91844553       0.00000000 NULL
P        0.17822421       4.63992207       2.61548106       0.00000000 NULL
P        1.47495814       0.78464881       2.67260855       0.00000000 NULL
P        1.47495814       0.78464881       4.86131804       0.00000000 NULL
4
Lattice="2.4341768434144013 -0.6046228060654288 0.0 -1.6250625973268589 6.744401248785433 0.0 0.0 0.0 7.459223221511339" Properties=species:S:1:pos:R:3:initial_magmoms:R:1:castep_labels:S:1 n_minim_iter=9 pbc="T T T"
P       -0.55018389       5.04601495       4.82572119       0.00000000 NULL
P       -0.55018389       5.04601495       2.63350203       0.00000000 NULL
P        1.20473635       0.69310722       2.60465880       0.00000000 NULL
P        1.20473635       0.69310722       4.85456442       0.00000000 NULL
4
Lattice="2.459837804471593 -0.4413740667097606 0.0 -1.2484874006553568 5.801008612339258 0.0 0.0 0.0 7.459258791759084" Properties=species:S:1:pos:R:3:initial_magmoms:R:1:castep_labels:S:1 n_minim_iter=10 pbc="T T T"
P       -0.27643059       4.39595327       4.83479355       0.00000000 NULL
P       -0.27643059       4.39595327       2.62446524       0.00000000 NULL
P        1.30432872       0.61043547       2.61348639       0.00000000 NULL
P        1.30432872       0.61043547       4.84577240       0.00000000 NULL
4
Lattice="2.4915491416118 -0.4260044102528457 0.0 -1.2157013691029637 6.3446791630261306 0.0 0.0 0.0 7.609585578681031" Properties=species:S:1:pos:R:3:initial_magmoms:R:1:castep_labels:S:1 n_minim_iter=11 pbc="T T T"
P       -0.23733562       4.79444537       4.93779533       0.00000000 NULL
P       -0.23733562       4.79444537       2.67179025       0.00000000 NULL
P        1.32398149       0.73165223       2.66214878       0.00000000 NULL
P        1.32398149       0.73165223       4.94743679       0.00000000 NULL
4
Lattice="2.4757046486406638 -0.42023022983321295 0.0 -1.200856062037454 6.2457516560291895 0.0 0.0 0.0 7.528469427964056" Properties=species:S:1:pos:R:3:initial_magmoms:R:1:castep_labels:S:1 n_minim_iter=12 pbc="T T T"
P       -0.23127289       4.72254722       4.88317318       0.00000000 NULL
P       -0.23127289       4.72254722       2.64529625       0.00000000 NULL
P        1.31763015       0.71661345       2.63684151       0.00000000 NULL
P        1.31763015       0.71661345       4.89162791       0.00000000 NULL
