8
Lattice="5.316400000000001 0.0 -7.443475318304223e-32 0.0 5.91422 0.0 -2.6582000000000003 0.0 5.391689245757803" Properties=species:S:1:pos:R:3:initial_magmoms:R:1:castep_labels:S:1 n_minim_iter=1 pbc="T T T"
P        2.60568114       3.97793335       3.45981949       0.00000000 NULL
P        0.05251885       1.02082335       1.93186974       0.00000000 NULL
P       -0.05251886       4.89339665       1.93186974       0.00000000 NULL
P        2.71071885       1.93628665       3.45981949       0.00000000 NULL
P        2.52848596       1.26224654       0.99541744       0.00000000 NULL
P        0.12971404       4.21935654       4.39627179       0.00000000 NULL
P       -0.12971404       1.69486346       4.39627179       0.00000000 NULL
P        2.78791404       4.65197346       0.99541744       0.00000000 NULL
8
Lattice="5.311630644780836 0.0 -7.832554214456062e-19 0.0 5.913239065984982 0.0 -2.655815322390418 0.0 5.392702714427667" Properties=species:S:1:pos:R:3:initial_magmoms:R:1:castep_labels:S:1 n_minim_iter=2 pbc="T T T"
P        2.60328232       3.97741355       3.46052826       0.00000000 NULL
P        0.05253300       1.02079402       1.93217444       0.00000000 NULL
P       -0.05253301       4.89244505       1.93217444       0.00000000 NULL
P        2.70834832       1.93582552       3.46052826       0.00000000 NULL
P        2.52616919       1.26188998       0.99584316       0.00000000 NULL
P        0.12964612       4.21850952       4.39685954       0.00000000 NULL
P       -0.12964613       1.69472955       4.39685954       0.00000000 NULL
P        2.78546145       4.65134908       0.99584316       0.00000000 NULL
8
Lattice="4.735623960693835 0.0 -7.056630753512157e-17 0.0 5.791652652579775 0.0 -2.3678119803469175 0.0 5.523572910119087" Properties=species:S:1:pos:R:3:initial_magmoms:R:1:castep_labels:S:1 n_minim_iter=3 pbc="T T T"
P        2.31398652       3.91327638       3.55223500       0.00000000 NULL
P        0.05382546       1.01745005       1.97133789       0.00000000 NULL
P       -0.05382546       4.77420260       1.97133789       0.00000000 NULL
P        2.42163744       1.87837627       3.55223500       0.00000000 NULL
P        2.24669323       1.21755442       1.05121954       0.00000000 NULL
P        0.12111874       4.11338075       4.47235336       0.00000000 NULL
P       -0.12111875       1.67827190       4.47235336       0.00000000 NULL
P        2.48893072       4.57409823       1.05121954       0.00000000 NULL
8
Lattice="4.730278876337543 0.0 -8.038307738476174e-17 0.0 6.013489710015315 0.0 -2.3651394381687716 0.0 5.622385019524047" Properties=species:S:1:pos:R:3:initial_magmoms:R:1:castep_labels:S:1 n_minim_iter=4 pbc="T T T"
P        2.30778946       4.08697613       3.62623251       0.00000000 NULL
P        0.05734997       1.08023128       1.99615250       0.00000000 NULL
P       -0.05734998       4.93325843       1.99615250       0.00000000 NULL
P        2.42248941       1.92651358       3.62623251       0.00000000 NULL
P        2.24165978       1.25648465       1.08448930       0.00000000 NULL
P        0.12347965       4.26322951       4.53789571       0.00000000 NULL
P       -0.12347966       1.75026020       4.53789571       0.00000000 NULL
P        2.48861909       4.75700506       1.08448930       0.00000000 NULL
8
Lattice="4.679898286147846 0.0 -1.0498856139881812e-16 0.0 5.8394292409051385 0.0 -2.339949143073923 0.0 5.5411037472653994" Properties=species:S:1:pos:R:3:initial_magmoms:R:1:castep_labels:S:1 n_minim_iter=5 pbc="T T T"
P        2.28185550       3.97060133       3.57793515       0.00000000 NULL
P        0.05809363       1.05088671       1.96316858       0.00000000 NULL
P       -0.05809364       4.78854253       1.96316858       0.00000000 NULL
P        2.39804277       1.86882791       3.57793515       0.00000000 NULL
P        2.21665756       1.21717313       1.07298135       0.00000000 NULL
P        0.12329157       4.13688775       4.46812238       0.00000000 NULL
P       -0.12329158       1.70254149       4.46812238       0.00000000 NULL
P        2.46324072       4.62225611       1.07298135       0.00000000 NULL
8
Lattice="4.707462841028744 0.0 -1.1018607432551635e-16 0.0 5.811377630860503 0.0 -2.353731420514372 0.0 5.540538953050947" Properties=species:S:1:pos:R:3:initial_magmoms:R:1:castep_labels:S:1 n_minim_iter=6 pbc="T T T"
P        2.29415699       3.95678870       3.58160128       0.00000000 NULL
P        0.05957442       1.05109989       1.95893766       0.00000000 NULL
P       -0.05957443       4.76027774       1.95893766       0.00000000 NULL
P        2.41330585       1.85458893       3.58160128       0.00000000 NULL
P        2.22891532       1.20886996       1.07743561       0.00000000 NULL
P        0.12481609       4.11455877       4.46310333       0.00000000 NULL
P       -0.12481610       1.69681886       4.46310333       0.00000000 NULL
P        2.47854751       4.60250767       1.07743561       0.00000000 NULL
8
Lattice="4.724030329609247 0.0 -1.0809134343003204e-16 0.0 5.782371423299384 0.0 -2.3620151648046237 0.0 5.527590621101526" Properties=species:S:1:pos:R:3:initial_magmoms:R:1:castep_labels:S:1 n_minim_iter=7 pbc="T T T"
P        2.30110980       3.94165662       3.57679596       0.00000000 NULL
P        0.06090536       1.05047091       1.95079465       0.00000000 NULL
P       -0.06090537       4.73190051       1.95079465       0.00000000 NULL
P        2.42292053       1.84071480       3.57679596       0.00000000 NULL
P        2.23595543       1.20078624       1.07899073       0.00000000 NULL
P        0.12605973       4.09197195       4.44859987       0.00000000 NULL
P       -0.12605974       1.69039947       4.44859987       0.00000000 NULL
P        2.48807490       4.58158519       1.07899073       0.00000000 NULL
8
Lattice="4.7591863520547255 0.0 -1.1064560447762883e-16 0.0 5.722441091570419 0.0 -2.3795931760273628 0.0 5.489769821058393" Properties=species:S:1:pos:R:3:initial_magmoms:R:1:castep_labels:S:1 n_minim_iter=8 pbc="T T T"
P        2.31557299       3.91121126       3.56032341       0.00000000 NULL
P        0.06402018       1.04999071       1.92944640       0.00000000 NULL
P       -0.06402019       4.67245038       1.92944640       0.00000000 NULL
P        2.44361336       1.81122984       3.56032341       0.00000000 NULL
P        2.25067248       1.18404516       1.08093821       0.00000000 NULL
P        0.12892069       4.04526571       4.40883160       0.00000000 NULL
P       -0.12892070       1.67717538       4.40883160       0.00000000 NULL
P        2.50851386       4.53839593       1.08093821       0.00000000 NULL
8
Lattice="4.7899588451534365 0.0 -1.1323183258925388e-16 0.0 5.671821271712944 0.0 -2.3949794225767183 0.0 5.441015559537626" Properties=species:S:1:pos:R:3:initial_magmoms:R:1:castep_labels:S:1 n_minim_iter=9 pbc="T T T"
P        2.32763607       3.88701136       3.53678433       0.00000000 NULL
P        0.06734334       1.05110073       1.90423122       0.00000000 NULL
P       -0.06734335       4.62072054       1.90423122       0.00000000 NULL
P        2.46232277       1.78480991       3.53678433       0.00000000 NULL
P        2.26308941       1.16992275       1.08124628       0.00000000 NULL
P        0.13189000       4.00583339       4.35976926       0.00000000 NULL
P       -0.13189001       1.66598788       4.35976926       0.00000000 NULL
P        2.52686942       4.50189852       1.08124628       0.00000000 NULL
8
Lattice="4.819162313902943 0.0 -1.1144225147789677e-16 0.0 5.625693214543285 0.0 -2.4095811569514716 0.0 5.394896573605699" Properties=species:S:1:pos:R:3:initial_magmoms:R:1:castep_labels:S:1 n_minim_iter=10 pbc="T T T"
P        2.33874890       3.86543558       3.51498988       0.00000000 NULL
P        0.07083225       1.05258897       1.87990668       0.00000000 NULL
P       -0.07083226       4.57310425       1.87990668       0.00000000 NULL
P        2.48041341       1.76025764       3.51498988       0.00000000 NULL
P        2.27459590       1.15735134       1.08263524       0.00000000 NULL
P        0.13498525       3.97019795       4.31226132       0.00000000 NULL
P       -0.13498526       1.65549526       4.31226132       0.00000000 NULL
P        2.54456641       4.46834187       1.08263524       0.00000000 NULL
8
Lattice="4.890810809579127 0.0 -9.907142882188936e-17 0.0 5.508763912290338 0.0 -2.4454054047895637 0.0 5.277693335091789" Properties=species:S:1:pos:R:3:initial_magmoms:R:1:castep_labels:S:1 n_minim_iter=11 pbc="T T T"
P        2.36408596       3.81256977       3.46207704       0.00000000 NULL
P        0.08131943       1.05818781       1.81561628       0.00000000 NULL
P       -0.08131944       4.45057610       1.81561628       0.00000000 NULL
P        2.52672484       1.69619415       3.46207704       0.00000000 NULL
P        2.30132791       1.12632901       1.09052784       0.00000000 NULL
P        0.14407749       3.88071096       4.18716548       0.00000000 NULL
P       -0.14407750       1.62805295       4.18716548       0.00000000 NULL
P        2.58948289       4.38243490       1.09052784       0.00000000 NULL
8
Lattice="4.906978868113296 0.0 -1.0042190453907466e-16 0.0 5.443391078218794 0.0 -2.453489434056648 0.0 5.221756553869173" Properties=species:S:1:pos:R:3:initial_magmoms:R:1:castep_labels:S:1 n_minim_iter=12 pbc="T T T"
P        2.35686046       3.80213624       3.45965576       0.00000000 NULL
P        0.09662897       1.08044070       1.76210078       0.00000000 NULL
P       -0.09662898       4.36295038       1.76210078       0.00000000 NULL
P        2.55011840       1.64125484       3.45965576       0.00000000 NULL
P        2.29816198       1.11129982       1.12804195       0.00000000 NULL
P        0.15532744       3.83299536       4.09371459       0.00000000 NULL
P       -0.15532745       1.61039572       4.09371459       0.00000000 NULL
P        2.60881688       4.33209126       1.12804195       0.00000000 NULL
8
Lattice="5.05549875046698 0.0 -1.0284810123785109e-16 0.0 5.2683841390173 0.0 -2.52774937523349 0.0 5.1612943790895605" Properties=species:S:1:pos:R:3:initial_magmoms:R:1:castep_labels:S:1 n_minim_iter=13 pbc="T T T"
P        2.42360881       3.68669422       3.43340335       0.00000000 NULL
P        0.10414056       1.05250215       1.72789101       0.00000000 NULL
P       -0.10414057       4.21588199       1.72789101       0.00000000 NULL
P        2.63188993       1.58168992       3.43340335       0.00000000 NULL
P        2.36534369       1.07868408       1.13368288       0.00000000 NULL
P        0.16240568       3.71287615       4.02761149       0.00000000 NULL
P       -0.16240568       1.55550799       4.02761149       0.00000000 NULL
P        2.69015505       4.18970006       1.13368288       0.00000000 NULL
8
Lattice="4.988877815231079 0.0 -8.605630407853179e-17 0.0 5.382926004034513 0.0 -2.4944389076155393 0.0 5.173549874842476" Properties=species:S:1:pos:R:3:initial_magmoms:R:1:castep_labels:S:1 n_minim_iter=14 pbc="T T T"
P        2.38906668       3.77181207       3.44587901       0.00000000 NULL
P        0.10537222       1.08034907       1.72767085       0.00000000 NULL
P       -0.10537223       4.30257694       1.72767085       0.00000000 NULL
P        2.59981113       1.61111394       3.44587901       0.00000000 NULL
P        2.33231541       1.10473856       1.14194311       0.00000000 NULL
P        0.16212349       3.79620157       4.03160675       0.00000000 NULL
P       -0.16212350       1.58672444       4.03160675       0.00000000 NULL
P        2.65656240       4.27818744       1.14194311       0.00000000 NULL
8
Lattice="4.971053408032325 0.0 -8.574576103479665e-17 0.0 5.348292483802289 0.0 -2.4855267040161624 0.0 5.1699892406321615" Properties=species:S:1:pos:R:3:initial_magmoms:R:1:castep_labels:S:1 n_minim_iter=15 pbc="T T T"
P        2.37911888       3.74924687       3.44713247       0.00000000 NULL
P        0.10640782       1.07510062       1.72285676       0.00000000 NULL
P       -0.10640783       4.27319186       1.72285676       0.00000000 NULL
P        2.59193453       1.59904562       3.44713247       0.00000000 NULL
P        2.32314004       1.09854265       1.14587724       0.00000000 NULL
P        0.16238666       3.77268889       4.02411199       0.00000000 NULL
P       -0.16238667       1.57560359       4.02411199       0.00000000 NULL
P        2.64791336       4.24974983       1.14587724       0.00000000 NULL
8
Lattice="4.980111318843 0.0 -8.668003293690733e-17 0.0 5.346514762630238 0.0 -2.4900556594215 0.0 5.171410599717053" Properties=species:S:1:pos:R:3:initial_magmoms:R:1:castep_labels:S:1 n_minim_iter=16 pbc="T T T"
P        2.38239564       3.74982393       3.45107388       0.00000000 NULL
P        0.10766001       1.07656654       1.72033671       0.00000000 NULL
P       -0.10766002       4.26994822       1.72033671       0.00000000 NULL
P        2.59771567       1.59669084       3.45107388       0.00000000 NULL
P        2.32683223       1.09924234       1.14994547       0.00000000 NULL
P        0.16322342       3.77249972       4.02146512       0.00000000 NULL
P       -0.16322343       1.57401504       4.02146512       0.00000000 NULL
P        2.65327908       4.24727242       1.14994547       0.00000000 NULL
