12
Lattice="6.308470000000002 -1.807952584584979e-32 -3.9942149686706565e-32 3.154235000000001 6.4874345240371625 5.721813804464e-13 3.1542350000000003 1.8038161870941412 6.231617275382567" Properties=species:S:1:pos:R:3:initial_magmoms:R:1:castep_labels:S:1 n_minim_iter=1 pbc="T T T"
P        8.62538903       6.67624347       0.88662703       0.00000000 NULL
P        3.99155096       2.70797899       6.16645637       0.00000000 NULL
P        7.14578596       4.33443430       4.00243567       0.00000000 NULL
P        5.47115403       5.04978815       3.05064773       0.00000000 NULL
P        6.75798760       5.14584813       1.27880264       0.00000000 NULL
P        5.85895240       2.65916715       4.58736517       0.00000000 NULL
P        9.01318740       2.80403896       4.39461128       0.00000000 NULL
P        3.60375260       5.00097632       1.47155653       0.00000000 NULL
P        7.17896821       3.32033439       0.00724986       0.00000000 NULL
P        5.43797179       0.93017529       3.18738874       0.00000000 NULL
P        2.28373679       0.97852522       3.12305850       0.00000000 NULL
P        4.02473321       3.27198446       0.07158010       0.00000000 NULL
12
Lattice="6.310893712752247 -9.067962287589685e-19 -6.749452096475715e-19 3.1554468563761233 6.485499899320518 -0.0028022160669020665 3.155446856376123 1.8005865521193865 6.230538087904462" Properties=species:S:1:pos:R:3:initial_magmoms:R:1:castep_labels:S:1 n_minim_iter=2 pbc="T T T"
P        8.62849634       6.67380712       0.88384794       0.00000000 NULL
P        3.99329108       2.70463206       6.16488881       0.00000000 NULL
P        7.14873794       4.33135044       4.00051809       0.00000000 NULL
P        5.47304949       5.04708873       3.04821866       0.00000000 NULL
P        6.76058669       5.14373845       1.27642488       0.00000000 NULL
P        5.86120073       2.65629656       4.58599981       0.00000000 NULL
P        9.01664759       2.80128178       4.39309504       0.00000000 NULL
P        3.60513984       4.99875324       1.46932966       0.00000000 NULL
P        7.18169836       3.31937079       0.00583526       0.00000000 NULL
P        5.44008906       0.92854855       3.18685646       0.00000000 NULL
P        2.28464221       0.97691412       3.12250542       0.00000000 NULL
P        4.02625150       3.27100522       0.07018631       0.00000000 NULL
12
Lattice="6.696837250087147 6.36255634756385e-17 3.416395510234743e-17 3.3484186250435735 6.207579718038808 -0.42325602806566787 3.348418625043573 1.3194373168550455 6.0804832692797595" Properties=species:S:1:pos:R:3:initial_magmoms:R:1:castep_labels:S:1 n_minim_iter=3 pbc="T T T"
P        9.12242949       6.31967007       0.46962413       0.00000000 NULL
P        4.27124500       2.20827524       5.93989033       0.00000000 NULL
P        7.61966363       3.87559887       3.72149378       0.00000000 NULL
P        5.77401087       4.65234644       2.68802068       0.00000000 NULL
P        7.17443942       4.83804071       0.92202674       0.00000000 NULL
P        6.21923508       2.23087476       4.39089616       0.00000000 NULL
P        9.56765371       2.39396951       4.17389639       0.00000000 NULL
P        3.82602079       4.67494596       1.13902651       0.00000000 NULL
P        7.61629746       3.18082661      -0.20668853       0.00000000 NULL
P        5.77737704       0.68588326       3.11286720       0.00000000 NULL
P        2.42895842       0.73675541       3.04518112       0.00000000 NULL
P        4.26787883       3.12995446      -0.13900245       0.00000000 NULL
12
Lattice="6.9077004458840445 6.227890460753872e-17 5.7115947395693656e-18 3.4538502229420223 6.430947280666918 -0.27383449112521596 3.453850222942022 1.52507358973143 6.253496526036513" Properties=species:S:1:pos:R:3:initial_magmoms:R:1:castep_labels:S:1 n_minim_iter=4 pbc="T T T"
P        9.40332005       6.56902568       0.64686035       0.00000000 NULL
P        4.41208084       2.44785530       6.13013304       0.00000000 NULL
P        7.86593106       4.11608883       3.91052586       0.00000000 NULL
P        5.94946983       4.90079215       2.86646753       0.00000000 NULL
P        7.39691664       5.05176378       1.06920953       0.00000000 NULL
P        6.41848425       2.43167894       4.55526770       0.00000000 NULL
P        9.87233447       2.59882693       4.33287504       0.00000000 NULL
P        3.94306642       4.88461578       1.29160220       0.00000000 NULL
P        7.85628159       3.28998418      -0.13760582       0.00000000 NULL
P        5.95911930       0.78259286       3.19851211       0.00000000 NULL
P        2.50526907       0.83704734       3.12605969       0.00000000 NULL
P        4.40243137       3.23552971      -0.06515340       0.00000000 NULL
12
Lattice="6.832386273247355 5.694381382204797e-17 8.091033492423611e-18 3.4161931366236775 6.255979503463986 -0.3073822056482481 3.416193136623677 1.4441993667753785 6.094756070353948" Properties=species:S:1:pos:R:3:initial_magmoms:R:1:castep_labels:S:1 n_minim_iter=5 pbc="T T T"
P        9.30018457       6.38328426       0.59247075       0.00000000 NULL
P        4.36458798       2.34396546       5.96683882       0.00000000 NULL
P        7.78078111       3.97739419       3.79353989       0.00000000 NULL
P        5.88399143       4.74985553       2.76576968       0.00000000 NULL
P        7.31528670       4.90631716       1.01186739       0.00000000 NULL
P        6.34948584       2.33615686       4.43150029       0.00000000 NULL
P        9.76567898       2.50042709       4.21293653       0.00000000 NULL
P        3.89909357       4.74204693       1.23043116       0.00000000 NULL
P        7.76959577       3.20048545      -0.15486621       0.00000000 NULL
P        5.89517677       0.74112817       3.11734176       0.00000000 NULL
P        2.47898364       0.79459538       3.04620292       0.00000000 NULL
P        4.35340264       3.14701824      -0.08372737       0.00000000 NULL
12
Lattice="6.861149855941157 5.284832965711539e-17 1.7949880156297995e-17 3.4305749279705786 6.224108405723168 -0.29981934545299344 3.430574927970578 1.44260231763016 6.062038901167639" Properties=species:S:1:pos:R:3:initial_magmoms:R:1:castep_labels:S:1 n_minim_iter=6 pbc="T T T"
P        9.33722708       6.35103987       0.59677679       0.00000000 NULL
P        4.38507263       2.33913622       5.93466863       0.00000000 NULL
P        7.81564756       3.96028683       3.77770591       0.00000000 NULL
P        5.90665215       4.72988927       2.75373951       0.00000000 NULL
P        7.34515884       4.88393344       1.01057906       0.00000000 NULL
P        6.37714087       2.32869558       4.41035744       0.00000000 NULL
P        9.80771580       2.49318040       4.19150818       0.00000000 NULL
P        3.91458391       4.71944863       1.22942832       0.00000000 NULL
P        7.80169057       3.18360781      -0.15284014       0.00000000 NULL
P        5.92060914       0.73838156       3.10056632       0.00000000 NULL
P        2.49003421       0.79285477       3.02808898       0.00000000 NULL
P        4.37111564       3.12913461      -0.08036281       0.00000000 NULL
12
Lattice="6.899887808446519 4.687115729507053e-17 2.893317190038787e-17 3.4499439042232596 6.2090257544817105 -0.28326875505757665 3.449943904223259 1.4543065767314882 6.042949146590975" Properties=species:S:1:pos:R:3:initial_magmoms:R:1:castep_labels:S:1 n_minim_iter=7 pbc="T T T"
P        9.38748486       6.33739258       0.61188972       0.00000000 NULL
P        4.41229076       2.34985861       5.91735737       0.00000000 NULL
P        7.86223466       3.96003299       3.77499867       0.00000000 NULL
P        5.93754095       4.72721820       2.75424842       0.00000000 NULL
P        7.38564984       4.87702598       1.01866569       0.00000000 NULL
P        6.41412578       2.33454273       4.40147389       0.00000000 NULL
P        9.86406968       2.49966639       4.18177464       0.00000000 NULL
P        3.93570593       4.71190232       1.23836494       0.00000000 NULL
P        7.84511437       3.17520825      -0.14661015       0.00000000 NULL
P        5.95466124       0.74203041       3.09076573       0.00000000 NULL
P        2.50471734       0.79784866       3.01649880       0.00000000 NULL
P        4.39517047       3.11938999      -0.07234322       0.00000000 NULL
