12
Lattice="3.0837520895248227 0.0 0.0 0.0 8.266633663751884 0.0 0.0 0.0 9.394319034046358" Properties=species:S:1:pos:R:3:initial_magmoms:R:1:castep_labels:S:1:forces:R:3 n_minim_iter=1 energy=-62.3149442184 stress="-0.0005420441884972145 -0.0 0.0 -0.0 -0.0004022843934968156 -0.0 0.0 -0.0 -0.0005708145795206009" free_energy=-62.3149442184 pbc="T T T"
P        1.15807926       2.06006873       5.61482033       0.00000000 NULL       0.00000000       0.00495900      -0.00757600
P        1.15807926       6.20656493       3.77949870       0.00000000 NULL       0.00000000      -0.00495900       0.00757600
P        2.69995530       6.19338556       8.47665822       0.00000000 NULL      -0.00000000       0.00495900       0.00757600
P        2.69995530       2.07324810       0.91766082       0.00000000 NULL      -0.00000000      -0.00495900      -0.00757600
P        2.69995530       0.46229505       6.24057702       0.00000000 NULL      -0.00000000      -0.01044300      -0.01654000
P        2.69995530       7.80433862       3.15374201       0.00000000 NULL      -0.00000000       0.01044200       0.01654000
P        1.15807926       4.59561188       7.85090153       0.00000000 NULL       0.00000000      -0.01044200       0.01654000
P        1.15807926       3.67102178       1.54341750       0.00000000 NULL       0.00000000       0.01044200      -0.01654000
P        2.69995530       5.52913867       6.40529654       0.00000000 NULL      -0.00000000       0.02131500      -0.01409900
P        2.69995530       2.73749499       2.98902250       0.00000000 NULL      -0.00000000      -0.02131500       0.01409900
P        1.15807926       1.39582184       7.68618201       0.00000000 NULL       0.00000000       0.02131500       0.01409900
P        1.15807926       6.87081183       1.70813702       0.00000000 NULL       0.00000000      -0.02131500      -0.01409900
12
Lattice="3.0848777656949373 0.0 0.0 0.0 8.26887311062871 0.0 0.0 0.0 9.397930336740982" Properties=species:S:1:pos:R:3:initial_magmoms:R:1:castep_labels:S:1:forces:R:3 n_minim_iter=2 energy=-62.31501324703 stress="8.768315956482856e-05 0.0 -0.0 0.0 -4.4675862937170026e-05 0.0 -0.0 0.0 3.0242764359895672e-05" free_energy=-62.31501324703 pbc="T T T"
P        1.15850199       2.06064075       5.61695744       0.00000000 NULL      -0.00000000      -0.00357200       0.00405200
P        1.15850199       6.20823236       3.78097290       0.00000000 NULL      -0.00000000       0.00357200      -0.00405200
P        2.70094088       6.19507731       8.47993807       0.00000000 NULL       0.00000000      -0.00357200      -0.00405300
P        2.70094088       2.07379580       0.91799227       0.00000000 NULL       0.00000000       0.00357200       0.00405200
P        2.70094088       0.46239092       6.24292946       0.00000000 NULL       0.00000100      -0.00174300      -0.01385000
P        2.70094088       7.80648219       3.15500088       0.00000000 NULL       0.00000100       0.00174300       0.01385000
P        1.15850199       4.59682747       7.85396604       0.00000000 NULL      -0.00000100      -0.00174300       0.01385000
P        1.15850199       3.67204564       1.54396429       0.00000000 NULL      -0.00000100       0.00174300      -0.01385000
P        2.70094088       5.53069647       6.40771916       0.00000000 NULL       0.00000000       0.02060800       0.00060100
P        2.70094088       2.73817664       2.99021117       0.00000000 NULL       0.00000000      -0.02060800      -0.00060000
P        1.15850199       1.39625991       7.68917634       0.00000000 NULL      -0.00000000       0.02060800      -0.00060100
P        1.15850199       6.87261320       1.70875400       0.00000000 NULL      -0.00000000      -0.02060800       0.00060100
12
Lattice="3.082203552811994 0.0 0.0 0.0 8.279071249649581 0.0 0.0 0.0 9.399323421000267" Properties=species:S:1:pos:R:3:initial_magmoms:R:1:castep_labels:S:1:forces:R:3 n_minim_iter=3 energy=-62.315127826293 stress="-0.00019199506849005166 0.0 0.0 0.0 0.00025386709490465246 0.0 0.0 0.0 2.9935387443182863e-05" free_energy=-62.315127826293 pbc="T T T"
P        1.15749771       2.06295117       5.61804240       0.00000000 NULL      -0.00000100      -0.00611600       0.00413600
P        1.15749771       6.21612008       3.78128102       0.00000000 NULL      -0.00000100       0.00611600      -0.00413600
P        2.69859949       6.20248679       8.48094273       0.00000000 NULL       0.00000100      -0.00611600      -0.00413600
P        2.69859949       2.07658446       0.91838069       0.00000000 NULL       0.00000100       0.00611600       0.00413600
P        2.69859949       0.46278578       6.24278578       0.00000000 NULL       0.00000100       0.00618100      -0.00662500
P        2.69859949       7.81628547       3.15653764       0.00000000 NULL       0.00000100      -0.00618100       0.00662500
P        1.15749771       4.60232141       7.85619935       0.00000000 NULL      -0.00000100       0.00618100       0.00662500
P        1.15749771       3.67674984       1.54312407       0.00000000 NULL      -0.00000100      -0.00618100      -0.00662500
P        2.69859949       5.53909363       6.40864323       0.00000000 NULL       0.00000100       0.01332200       0.00557700
P        2.69859949       2.73997762       2.99068019       0.00000000 NULL       0.00000100      -0.01332200      -0.00557700
P        1.15749771       1.39955800       7.69034190       0.00000000 NULL      -0.00000100       0.01332200      -0.00557700
P        1.15749771       6.87951325       1.70898152       0.00000000 NULL      -0.00000100      -0.01332200       0.00557700
12
Lattice="3.083519246324312 0.0 0.0 0.0 8.275059054313845 0.0 0.0 0.0 9.398880861923487" Properties=species:S:1:pos:R:3:initial_magmoms:R:1:castep_labels:S:1:forces:R:3 n_minim_iter=4 energy=-62.315211370854 stress="0.0001500679562288876 -0.0 0.0 -0.0 0.00011892020315776255 -0.0 0.0 -0.0 -0.0002318777173072642" free_energy=-62.315211370854 pbc="T T T"
P        1.15799181       2.06164368       5.61805566       0.00000000 NULL       0.00000000      -0.00074100      -0.00824200
P        1.15799181       6.21341537       3.78082520       0.00000000 NULL       0.00000000       0.00074100       0.00824200
P        2.69975144       6.19917321       8.48026563       0.00000000 NULL      -0.00000000      -0.00074100       0.00824200
P        2.69975144       2.07588585       0.91861523       0.00000000 NULL      -0.00000000       0.00074100      -0.00824200
P        2.69975144       0.46257445       6.24156071       0.00000000 NULL      -0.00000100       0.01106900       0.00181800
P        2.69975144       7.81248460       3.15732015       0.00000000 NULL      -0.00000100      -0.01106900      -0.00181800
P        1.15799181       4.60010398       7.85676058       0.00000000 NULL       0.00000100       0.01106900      -0.00181800
P        1.15799181       3.67495507       1.54212028       0.00000000 NULL       0.00000100      -0.01106900       0.00181800
P        2.69975144       5.53786290       6.40844915       0.00000000 NULL      -0.00000000       0.00319200       0.00160900
P        2.69975144       2.73719616       2.99043171       0.00000000 NULL      -0.00000000      -0.00319200      -0.00160900
P        1.15799181       1.40033337       7.68987214       0.00000000 NULL       0.00000000       0.00319200      -0.00160900
P        1.15799181       6.87472569       1.70900872       0.00000000 NULL       0.00000000      -0.00319200       0.00160900
12
Lattice="3.0830634997917583 0.0 0.0 0.0 8.27228403683601 0.0 0.0 0.0 9.402552494498275" Properties=species:S:1:pos:R:3:initial_magmoms:R:1:castep_labels:S:1:forces:R:3 n_minim_iter=5 energy=-62.315233326616 stress="-1.359452447266056e-05 -0.0 -0.0 -0.0 -3.532074303172851e-05 0.0 -0.0 0.0 2.4061474296702894e-05" free_energy=-62.315233326616 pbc="T T T"
P        1.15782066       2.06086590       5.62026368       0.00000000 NULL       0.00000100       0.00196000      -0.00570600
P        1.15782066       6.21141814       3.78228882       0.00000000 NULL       0.00000100      -0.00196000       0.00570600
P        2.69935241       6.19700792       8.48356507       0.00000000 NULL      -0.00000100       0.00196000       0.00570600
P        2.69935241       2.07527612       0.91898743       0.00000000 NULL      -0.00000100      -0.00196000      -0.00570600
P        2.69935241       0.46250323       6.24376703       0.00000000 NULL      -0.00000200       0.00786400       0.00385500
P        2.69935241       7.80978081       3.15878547       0.00000000 NULL      -0.00000200      -0.00786400      -0.00385500
P        1.15782066       4.59864525       7.86006171       0.00000000 NULL       0.00000200       0.00786500      -0.00385500
P        1.15782066       3.67363879       1.54249078       0.00000000 NULL       0.00000200      -0.00786500       0.00385500
P        2.69935241       5.53641141       6.41099270       0.00000000 NULL      -0.00000100       0.00394300       0.00691900
P        2.69935241       2.73587262       2.99155979       0.00000000 NULL      -0.00000100      -0.00394300      -0.00691900
P        1.15782066       1.40026939       7.69283604       0.00000000 NULL       0.00000100       0.00394300      -0.00691900
P        1.15782066       6.87201464       1.70971645       0.00000000 NULL       0.00000100      -0.00394300       0.00692000
