6
Lattice="5.0772699999999995 0.0 0.0 0.0 5.569689999999999 8.777737493298875e-16 0.0 -2.7848450000000002 4.823493031204149" Properties=species:S:1:pos:R:3:initial_magmoms:R:1:castep_labels:S:1 n_minim_iter=1 pbc="T T T"
P        3.85650034       1.56782930       3.27736189       0.00000000 NULL
P        0.47165367      -0.83734831       4.54259209       0.00000000 NULL
P        2.16407701      -0.73048100       1.82703208       0.00000000 NULL
P        0.34890847       2.50843354       4.17103842       0.00000000 NULL
P        2.04133180       0.70324799       0.08684796       0.00000000 NULL
P        3.73375514       5.14285346       0.56560665       0.00000000 NULL
6
Lattice="5.08463219019635 0.0 0.0 0.0 5.571295638849539 -5.965130352384103e-16 0.0 -2.785647819424769 4.824883555237155" Properties=species:S:1:pos:R:3:initial_magmoms:R:1:castep_labels:S:1 n_minim_iter=2 pbc="T T T"
P        3.86195444       1.56816612       3.27822107       0.00000000 NULL
P        0.47219964      -0.83745798       4.54384472       0.00000000 NULL
P        2.16707704      -0.73070816       1.82770131       0.00000000 NULL
P        0.34955234       2.50922237       4.17211494       0.00000000 NULL
P        2.04442974       0.70352692       0.08699284       0.00000000 NULL
P        3.73930713       5.14419416       0.56577577       0.00000000 NULL
6
Lattice="5.41352604079298 0.0 0.0 0.0 5.639318975988377 8.343754400761666e-16 0.0 -2.819659487994189 4.883793493249581" Properties=species:S:1:pos:R:3:initial_magmoms:R:1:castep_labels:S:1 n_minim_iter=3 pbc="T T T"
P        4.10539240       1.58228447       3.31454684       0.00000000 NULL
P        0.49637504      -0.84196452       4.59681862       0.00000000 NULL
P        2.30088372      -0.74031996       1.85622152       0.00000000 NULL
P        0.37853107       2.54278785       4.21749826       0.00000000 NULL
P        2.18303975       0.71546441       0.09336974       0.00000000 NULL
P        3.98754843       5.20072620       0.57292548       0.00000000 NULL
6
Lattice="5.597190422622505 0.0 0.0 0.0 5.593676431711157 -2.651550434163206e-16 0.0 -2.7968382158555785 4.844265890412153" Properties=species:S:1:pos:R:3:initial_magmoms:R:1:castep_labels:S:1 n_minim_iter=4 pbc="T T T"
P        4.24030068       1.56805414       3.28848323       0.00000000 NULL
P        0.50884040      -0.83509888       4.55799900       0.00000000 NULL
P        2.37457054      -0.73295528       1.84204955       0.00000000 NULL
P        0.39574860       2.52582105       4.17824486       0.00000000 NULL
P        2.26147874       0.71229971       0.09830276       0.00000000 NULL
P        4.12720888       5.15239388       0.56771827       0.00000000 NULL
6
Lattice="5.897321826913153 0.0 0.0 0.0 5.447820642017157 -6.801449214833154e-16 0.0 -2.723910321008578 4.717951071248109" Properties=species:S:1:pos:R:3:initial_magmoms:R:1:castep_labels:S:1 n_minim_iter=5 pbc="T T T"
P        4.45971156       1.52647741       3.20607217       0.00000000 NULL
P        0.52816368      -0.81586834       4.43688320       0.00000000 NULL
P        2.49393762      -0.71060908       1.79294677       0.00000000 NULL
P        0.42493100       2.46582582       4.05928232       0.00000000 NULL
P        2.39070494       0.69946611       0.10582664       0.00000000 NULL
P        4.35647889       5.00643902       0.55284211       0.00000000 NULL
6
Lattice="6.272847444492978 0.0 0.0 0.0 5.179488779774045 7.281502698225622e-16 0.0 -2.589744389887023 4.485568861900787" Properties=species:S:1:pos:R:3:initial_magmoms:R:1:castep_labels:S:1 n_minim_iter=6 pbc="T T T"
P        4.73275836       1.45321760       3.05063941       0.00000000 NULL
P        0.55086007      -0.77879564       4.21877251       0.00000000 NULL
P        2.64180921      -0.67442196       1.70172580       0.00000000 NULL
P        0.46292514       2.34418700       3.83995915       0.00000000 NULL
P        2.55387428       0.68189310       0.11014592       0.00000000 NULL
P        4.64482343       4.74315306       0.53546378       0.00000000 NULL
6
Lattice="6.2376450967517 0.0 0.0 0.0 5.273061124595358 -1.9908286943864098e-16 0.0 -2.6365305622976787 4.566604889607721" Properties=species:S:1:pos:R:3:initial_magmoms:R:1:castep_labels:S:1 n_minim_iter=7 pbc="T T T"
P        4.70732441       1.47902871       3.09445517       0.00000000 NULL
P        0.54889435      -0.78286059       4.30025374       0.00000000 NULL
P        2.62810938      -0.69616813       1.73850086       0.00000000 NULL
P        0.45920163       2.37023188       3.89780117       0.00000000 NULL
P        2.53841667       0.71235034       0.10378044       0.00000000 NULL
P        4.61763170       4.82700945       0.56502327       0.00000000 NULL
6
Lattice="6.188173377347289 0.0 0.0 0.0 5.199592077833697 2.4717502518730113e-16 0.0 -2.5997960389168484 4.502978828720295" Properties=species:S:1:pos:R:3:initial_magmoms:R:1:castep_labels:S:1 n_minim_iter=8 pbc="T T T"
P        4.67009513       1.46052078       3.05111453       0.00000000 NULL
P        0.54464621      -0.77280705       4.24226966       0.00000000 NULL
P        2.60737067      -0.68771374       1.71257347       0.00000000 NULL
P        0.45545440       2.33383718       3.83845539       0.00000000 NULL
P        2.51817886       0.70847360       0.10193460       0.00000000 NULL
P        4.58090332       4.75707732       0.56258884       0.00000000 NULL
