9
Lattice="4.217909999999999 -2.9342434529418023e-16 1.0727897438258132e-15 1.8887849963408285 5.894804071188269 -3.8939738026369046e-15 2.057764343539613 2.578323548507146 8.247878324622063" Properties=species:S:1:pos:R:3:initial_magmoms:R:1:castep_labels:S:1 n_minim_iter=1 pbc="T T T"
P        2.61084105       1.07700245       2.78533985       0.00000000 NULL
P        4.03087384       7.53455565       6.51157374       0.00000000 NULL
P        4.38355838       3.03300277       7.22515956       0.00000000 NULL
P        7.23164032       6.91310886       8.13127147       0.00000000 NULL
P        4.09593698       5.44885882       1.20161277       0.00000000 NULL
P        6.05952508       5.69408475       4.57866037       0.00000000 NULL
P        1.47719723       3.10020089       1.37738331       0.00000000 NULL
P        2.16356589       2.83565898       3.64621628       0.00000000 NULL
P        3.03780504       4.31445885       5.95359323       0.00000000 NULL
9
Lattice="4.21676665136825 -0.0008733318014288859 -0.0011139991615543472 1.8870524653954635 5.897652119771995 -0.0009722463608051092 2.0544943345697315 2.57865187570829 8.249111327394445" Properties=species:S:1:pos:R:3:initial_magmoms:R:1:castep_labels:S:1 n_minim_iter=2 pbc="T T T"
P        2.60933115       1.07664604       2.78518052       0.00000000 NULL
P        4.02663656       7.53750593       6.51126869       0.00000000 NULL
P        4.37985405       3.03312536       7.22552532       0.00000000 NULL
P        7.22605262       6.91464395       8.13070481       0.00000000 NULL
P        4.09319326       5.45102086       1.20045716       0.00000000 NULL
P        6.05548325       5.69559264       4.57766306       0.00000000 NULL
P        1.47588677       3.10128121       1.37736128       0.00000000 NULL
P        2.16133098       2.83672716       3.64632245       0.00000000 NULL
P        3.03445403       4.31575015       5.95380994       0.00000000 NULL
9
Lattice="4.166863375097948 -0.03854419514320591 -0.049066473979383886 1.8120582341103255 6.021770839454362 -0.04313689302476419 1.9133526235698526 2.592989117870486 8.300235556419349" Properties=species:S:1:pos:R:3:initial_magmoms:R:1:castep_labels:S:1 n_minim_iter=3 pbc="T T T"
P        2.54395163       1.06116253       2.77759915       0.00000000 NULL
P        3.84342843       7.66628921       6.49610580       0.00000000 NULL
P        4.21961776       3.03862148       7.23955018       0.00000000 NULL
P        6.98431712       6.98186313       8.10420832       0.00000000 NULL
P        3.97430215       5.54559183       1.15024328       0.00000000 NULL
P        5.88043176       5.76167036       4.53339112       0.00000000 NULL
P        1.41909364       3.14813560       1.37612115       0.00000000 NULL
P        2.06464727       2.88352965       3.64992752       0.00000000 NULL
P        2.88966338       4.37218776       5.96155347       0.00000000 NULL
9
Lattice="4.076157104145441 -0.05926984866640006 -0.08207252672602304 1.7424744093213405 6.07524671959098 -0.08048153068821078 1.7918897479587244 2.5787552668468168 8.205974819444318" Properties=species:S:1:pos:R:3:initial_magmoms:R:1:castep_labels:S:1 n_minim_iter=4 pbc="T T T"
P        2.46647053       1.04451495       2.72917729       0.00000000 NULL
P        3.67298341       7.70913936       6.37579107       0.00000000 NULL
P        4.05394717       3.01798431       7.13541887       0.00000000 NULL
P        6.72998189       6.98452606       7.95377009       0.00000000 NULL
P        3.84385072       5.58322106       1.08834676       0.00000000 NULL
P        5.68595587       5.77553141       4.42444424       0.00000000 NULL
P        1.36465772       3.15970321       1.35142078       0.00000000 NULL
P        1.97253763       2.89668470       3.59137072       0.00000000 NULL
P        2.75408006       4.38212721       5.86857596       0.00000000 NULL
9
Lattice="3.732210732102901 -0.1501610424000882 -0.18791527789304927 1.461428458621513 6.317659863408442 -0.2560293887106502 1.3615615477829732 2.478937404015244 7.869457303866185" Properties=species:S:1:pos:R:3:initial_magmoms:R:1:castep_labels:S:1 n_minim_iter=5 pbc="T T T"
P        2.18121280       0.96319605       2.56197309       0.00000000 NULL
P        3.03385126       7.87460786       5.90352892       0.00000000 NULL
P        3.44902331       2.89452430       6.76648376       0.00000000 NULL
P        5.78394202       6.96235570       7.40127151       0.00000000 NULL
P        3.33888383       5.75121353       0.83717493       0.00000000 NULL
P        4.95244307       5.82462570       4.01373284       0.00000000 NULL
P        1.15411793       3.20423277       1.24545693       0.00000000 NULL
P        1.63373226       2.93712746       3.37160720       0.00000000 NULL
P        2.25574754       4.40387395       5.51910573       0.00000000 NULL
9
Lattice="3.5162034732188823 -0.3198170376010433 -0.2310700578841125 1.1275948488733358 6.619480039987905 -0.4906919750983501 1.0680855235573676 2.2601148336512993 7.643822619593917" Properties=species:S:1:pos:R:3:initial_magmoms:R:1:castep_labels:S:1 n_minim_iter=6 pbc="T T T"
P        1.99287452       0.82036912       2.47143274       0.00000000 NULL
P        2.46351645       7.99589989       5.45725684       0.00000000 NULL
P        3.02650299       2.62120853       6.52796662       0.00000000 NULL
P        5.05800612       6.76634965       6.99717362       0.00000000 NULL
P        2.87331124       5.92972044       0.57261717       0.00000000 NULL
P        4.36276684       5.80421539       3.67387087       0.00000000 NULL
P        0.95242663       3.22865260       1.11809130       0.00000000 NULL
P        1.36687300       2.92316724       3.20275961       0.00000000 NULL
P        1.85897765       4.36239527       5.22646028       0.00000000 NULL
9
Lattice="3.435255767616183 -0.30367832870873646 -0.24333546732347308 1.1139012696010206 6.462562303907575 -0.3947821196349378 1.0144750639319722 2.338073081449801 7.303678648242278" Properties=species:S:1:pos:R:3:initial_magmoms:R:1:castep_labels:S:1 n_minim_iter=7 pbc="T T T"
P        1.94431406       0.85000372       2.37030836       0.00000000 NULL
P        2.38456405       7.91407014       5.26767796       0.00000000 NULL
P        2.93729515       2.67406457       6.23911258       0.00000000 NULL
P        4.92861072       6.72733543       6.73353890       0.00000000 NULL
P        2.80537599       5.82118466       0.58546697       0.00000000 NULL
P        4.25652803       5.75481275       3.54756315       0.00000000 NULL
P        0.93385228       3.16053465       1.09705580       0.00000000 NULL
P        1.32565551       2.91726439       3.08655350       0.00000000 NULL
P        1.79805606       4.36686222       5.00511609       0.00000000 NULL
9
Lattice="3.48143189115756 -0.3319431163311787 -0.23655561792173643 1.0950771088640867 6.6151002574446744 -0.4348429420357044 1.0329826152904886 2.3362380648731915 7.480948445627748" Properties=species:S:1:pos:R:3:initial_magmoms:R:1:castep_labels:S:1 n_minim_iter=8 pbc="T T T"
P        1.97245270       0.84229943       2.43850498       0.00000000 NULL
P        2.38556786       8.05353462       5.36031310       0.00000000 NULL
P        2.97977071       2.67660720       6.39435543       0.00000000 NULL
P        4.97652518       6.80290847       6.89163320       0.00000000 NULL
P        2.81119812       5.94156597       0.57670909       0.00000000 NULL
P        4.29103605       5.84741536       3.62187106       0.00000000 NULL
P        0.93428900       3.21638922       1.10881506       0.00000000 NULL
P        1.33533570       2.95840033       3.16117632       0.00000000 NULL
P        1.81108616       4.42868672       5.11140783       0.00000000 NULL
9
Lattice="3.4709725108758 -0.3372231821508753 -0.23361773550069367 1.0830141501861403 6.6031409795410285 -0.43032007935423766 1.0303971260080949 2.3339529745658556 7.44675505141662" Properties=species:S:1:pos:R:3:initial_magmoms:R:1:castep_labels:S:1 n_minim_iter=9 pbc="T T T"
P        1.96805493       0.83844381       2.43277321       0.00000000 NULL
P        2.36742743       8.04041946       5.33409957       0.00000000 NULL
P        2.97187285       2.66894556       6.36745509       0.00000000 NULL
P        4.95722593       6.78321398       6.86778430       0.00000000 NULL
P        2.79314573       5.93012795       0.57373011       0.00000000 NULL
P        4.27205859       5.83659312       3.60901447       0.00000000 NULL
P        0.92887328       3.20537394       1.10396225       0.00000000 NULL
P        1.32878983       2.95382445       3.15129979       0.00000000 NULL
P        1.80162827       4.42444115       5.08492859       0.00000000 NULL
9
Lattice="3.4638813700317574 -0.34605036012011736 -0.22873339935093454 1.0675021726751541 6.603406859964898 -0.4288757443006105 1.0310927768519758 2.3304523147802136 7.426047204705591" Properties=species:S:1:pos:R:3:initial_magmoms:R:1:castep_labels:S:1 n_minim_iter=10 pbc="T T T"
P        1.96649524       0.83281838       2.43353756       0.00000000 NULL
P        2.34834733       8.03748695       5.31448338       0.00000000 NULL
P        2.96888030       2.65981628       6.35315888       0.00000000 NULL
P        4.94208387       6.76693848       6.85776488       0.00000000 NULL
P        2.77370062       5.92768067       0.57041518       0.00000000 NULL
P        4.25513186       5.83204849       3.60307064       0.00000000 NULL
P        0.92310379       3.19781042       1.09998517       0.00000000 NULL
P        1.32316206       2.95197913       3.14782624       0.00000000 NULL
P        1.79352196       4.42473958       5.06610384       0.00000000 NULL
9
Lattice="3.436232686005452 -0.3869758662624563 -0.20398700393819935 0.9979249982497269 6.60630433686679 -0.4242530585833329 1.0409771949596975 2.3107324079578704 7.351187676489444" Properties=species:S:1:pos:R:3:initial_magmoms:R:1:castep_labels:S:1 n_minim_iter=11 pbc="T T T"
P        1.96340782       0.80459861       2.44377918       0.00000000 NULL
P        2.26861015       8.02247311       5.23987840       0.00000000 NULL
P        2.96392294       2.61552738       6.30540543       0.00000000 NULL
P        4.88476614       6.69119280       6.83091033       0.00000000 NULL
P        2.68976166       5.91609686       0.55913811       0.00000000 NULL
P        4.18631701       5.80891740       3.58760836       0.00000000 NULL
P        0.89870753       3.16436959       1.08522383       0.00000000 NULL
P        1.30164670       2.94216183       3.13943195       0.00000000 NULL
P        1.76258437       4.42396937       4.99478991       0.00000000 NULL
9
Lattice="3.3985600458763074 -0.4514278298383633 -0.15086726064583958 0.890979327353049 6.57257503172637 -0.4173721843023113 1.0870724763408794 2.253504804130925 7.3301623321938765" Properties=species:S:1:pos:R:3:initial_magmoms:R:1:castep_labels:S:1 n_minim_iter=12 pbc="T T T"
P        1.97024109       0.74327019       2.49797421       0.00000000 NULL
P        2.16958832       7.94060711       5.20338524       0.00000000 NULL
P        2.98748827       2.52282614       6.31784916       0.00000000 NULL
P        4.83184254       6.52750953       6.89261606       0.00000000 NULL
P        2.56891818       5.85339551       0.56910268       0.00000000 NULL
P        4.10225767       5.72384890       3.62964590       0.00000000 NULL
P        0.86612899       3.09575158       1.08229242       0.00000000 NULL
P        1.28329422       2.90360897       3.16725868       0.00000000 NULL
P        1.73759683       4.39052525       4.95484116       0.00000000 NULL
9
Lattice="3.3727236657111486 -0.48705437873509727 -0.11738844399068728 0.8296193427411019 6.519993617637675 -0.40179867001178 1.118155940516626 2.220917153361228 7.28131861692758" Properties=species:S:1:pos:R:3:initial_magmoms:R:1:castep_labels:S:1 n_minim_iter=13 pbc="T T T"
P        1.97217333       0.70454393       2.51481999       0.00000000 NULL
P        2.11753566       7.86263580       5.17186600       0.00000000 NULL
P        3.00160323       2.46854601       6.29313516       0.00000000 NULL
P        4.80166618       6.41722323       6.89751890       0.00000000 NULL
P        2.49993530       5.78529995       0.58601380       0.00000000 NULL
P        4.05380309       5.64463468       3.64501788       0.00000000 NULL
P        0.84672216       3.04775142       1.08275571       0.00000000 NULL
P        1.27419749       2.87202028       3.16358781       0.00000000 NULL
P        1.72601838       4.35814049       4.91420374       0.00000000 NULL
9
Lattice="3.3743131073385486 -0.4985039373421335 -0.10968099219892204 0.814329592321664 6.529536626610874 -0.40289793631232185 1.127003961053305 2.2153806908746683 7.302454402502405" Properties=species:S:1:pos:R:3:initial_magmoms:R:1:castep_labels:S:1 n_minim_iter=14 pbc="T T T"
P        1.97632097       0.69564576       2.52947144       0.00000000 NULL
P        2.10733609       7.86646741       5.18531293       0.00000000 NULL
P        3.01025231       2.45907042       6.31512099       0.00000000 NULL
P        4.80222908       6.40631642       6.92739084       0.00000000 NULL
P        2.48711240       5.78691278       0.59087653       0.00000000 NULL
P        4.04899111       5.64009910       3.66293318       0.00000000 NULL
P        0.84263710       3.04639910       1.08645924       0.00000000 NULL
P        1.27371981       2.87143066       3.17559085       0.00000000 NULL
P        1.72550274       4.36065517       4.92627645       0.00000000 NULL
9
Lattice="3.371616053024227 -0.5116203228279118 -0.09982977091347492 0.7947908448652076 6.5285025483429955 -0.4002074322743365 1.136933875807626 2.208690587222059 7.310813713074484" Properties=species:S:1:pos:R:3:initial_magmoms:R:1:castep_labels:S:1 n_minim_iter=15 pbc="T T T"
P        1.97898286       0.68462510       2.54173560       0.00000000 NULL
P        2.09251903       7.85938297       5.19233943       0.00000000 NULL
P        3.01739645       2.44628523       6.32739633       0.00000000 NULL
P        4.79725118       6.38492893       6.94979257       0.00000000 NULL
P        2.46831991       5.77819958       0.59797059       0.00000000 NULL
P        4.03820837       5.62574691       3.67855669       0.00000000 NULL
P        0.83672150       3.03950392       1.08980183       0.00000000 NULL
P        1.27176104       2.86713937       3.18350674       0.00000000 NULL
P        1.72298599       4.35877227       4.93024628       0.00000000 NULL
9
Lattice="3.370950322662617 -0.5134992022842315 -0.09835205861638974 0.7918668735649662 6.527678667693166 -0.39956345684760014 1.1383501497152226 2.2077567681093377 7.311084328710518" Properties=species:S:1:pos:R:3:initial_magmoms:R:1:castep_labels:S:1 n_minim_iter=16 pbc="T T T"
P        1.97922811       0.68301787       2.54321939       0.00000000 NULL
P        2.09021853       7.85776224       5.19289942       0.00000000 NULL
P        3.01825013       2.44438491       6.32840561       0.00000000 NULL
P        4.79618843       6.38141646       6.95233073       0.00000000 NULL
P        2.46538303       5.77635349       0.59911110       0.00000000 NULL
P        4.03634423       5.62317310       3.68053205       0.00000000 NULL
P        0.83579559       3.03823775       1.09024232       0.00000000 NULL
P        1.27139719       2.86633657       3.18429450       0.00000000 NULL
P        1.72251423       4.35826436       4.93026262       0.00000000 NULL
9
Lattice="3.359231378285595 -0.5469597214131371 -0.07199247435981797 0.7398558608365259 6.5132028545248 -0.38812666731614204 1.1637238000153791 2.191141142251977 7.315895257062435" Properties=species:S:1:pos:R:3:initial_magmoms:R:1:castep_labels:S:1 n_minim_iter=17 pbc="T T T"
P        1.98380894       0.65437608       2.56965437       0.00000000 NULL
P        2.04941759       7.82922560       5.20280943       0.00000000 NULL
P        3.03362014       2.41052476       6.34643345       0.00000000 NULL
P        4.77763524       6.31899932       6.99756715       0.00000000 NULL
P        2.41324753       5.74366916       0.61939654       0.00000000 NULL
P        4.00339710       5.57739167       3.71572586       0.00000000 NULL
P        0.81943190       3.01579124       1.09809145       0.00000000 NULL
P        1.26503779       2.85209975       3.19827265       0.00000000 NULL
P        1.71409261       4.34935729       4.93055198       0.00000000 NULL
9
Lattice="3.3459100135686493 -0.5817918100168228 -0.04397781368738264 0.6852104247041402 6.500023984305159 -0.37432374868720986 1.190713681003695 2.1769659280601283 7.32158459885969" Properties=species:S:1:pos:R:3:initial_magmoms:R:1:castep_labels:S:1 n_minim_iter=18 pbc="T T T"
P        1.98795138       0.62577748       2.59727358       0.00000000 NULL
P        2.00701235       7.80446827       5.21618951       0.00000000 NULL
P        3.04926912       2.37826649       6.36629559       0.00000000 NULL
P        4.75720773       6.25885413       7.04717885       0.00000000 NULL
P        2.35844366       5.71127250       0.64286098       0.00000000 NULL
P        3.96836467       5.53136839       3.75449101       0.00000000 NULL
P        0.80220683       2.99432797       1.10731086       0.00000000 NULL
P        1.25841193       2.83905305       3.21304862       0.00000000 NULL
P        1.70511732       4.34349171       4.93262928       0.00000000 NULL
9
Lattice="3.3320671573974403 -0.6168976466008125 -0.014800030739176975 0.6299488834525419 6.493000386046389 -0.36099235748962677 1.2195562268479863 2.164014519943444 7.331034797891837" Properties=species:S:1:pos:R:3:initial_magmoms:R:1:castep_labels:S:1 n_minim_iter=19 pbc="T T T"
P        1.99227928       0.59764778       2.62662762       0.00000000 NULL
P        1.96530147       7.78747072       5.23241947       0.00000000 NULL
P        3.06622704       2.34772844       6.38998176       0.00000000 NULL
P        4.73752654       6.20413915       7.10164078       0.00000000 NULL
P        2.30330442       5.68381053       0.66721390       0.00000000 NULL
P        3.93379892       5.48902172       3.79580166       0.00000000 NULL
P        0.78515757       2.97561015       1.11714134       0.00000000 NULL
P        1.25240961       2.82821263       3.22910942       0.00000000 NULL
P        1.69676425       4.34198218       4.93728139       0.00000000 NULL
9
Lattice="3.2879734691471203 -0.7125172850134106 0.06841363399848367 0.4765690032273611 6.478912577771282 -0.3252331120245234 1.3023136580940442 2.127827453725987 7.343955909540365" Properties=species:S:1:pos:R:3:initial_magmoms:R:1:castep_labels:S:1 n_minim_iter=20 pbc="T T T"
P        2.00296223       0.51998722       2.70502469       0.00000000 NULL
P        1.84920144       7.74972273       5.26607073       0.00000000 NULL
P        3.11303927       2.26374840       6.44537723       0.00000000 NULL
P        4.68072955       6.05705150       7.24272416       0.00000000 NULL
P        2.14807008       5.61195266       0.73285779       0.00000000 NULL
P        3.83600729       5.37308894       3.90365890       0.00000000 NULL
P        0.73891050       2.92438680       1.14214206       0.00000000 NULL
P        1.23626382       2.79971182       3.26680330       0.00000000 NULL
P        1.67204240       4.34461709       4.93901125       0.00000000 NULL
9
Lattice="3.2670000227343574 -0.7815481589128126 0.1487531029411324 0.37070192512330796 6.585629355048592 -0.35800397375800996 1.4069834653126756 2.0581579693363494 7.4650768333003645" Properties=species:S:1:pos:R:3:initial_magmoms:R:1:castep_labels:S:1 n_minim_iter=21 pbc="T T T"
P        2.03314851       0.44115643       2.83115675       0.00000000 NULL
P        1.78353452       7.82765180       5.30764558       0.00000000 NULL
P        3.20812717       2.18060994       6.58288678       0.00000000 NULL
P        4.70282390       5.97882621       7.45973062       0.00000000 NULL
P        2.04459504       5.64467472       0.75158374       0.00000000 NULL
P        3.81231383       5.33673281       4.01635504       0.00000000 NULL
P        0.72441251       2.89941752       1.15967999       0.00000000 NULL
P        1.24858788       2.79631529       3.33379911       0.00000000 NULL
P        1.68011302       4.41438817       4.96560247       0.00000000 NULL
9
Lattice="3.222929686174131 -0.7721691655758725 0.12919706096461914 0.36407493157143117 6.428820941776922 -0.33179164463435257 1.3529756409321239 2.04123894288831 7.2178587668596945" Properties=species:S:1:pos:R:3:initial_magmoms:R:1:castep_labels:S:1 n_minim_iter=22 pbc="T T T"
P        1.99307692       0.43458696       2.73713607       0.00000000 NULL
P        1.72419613       7.67299544       5.14417507       0.00000000 NULL
P        3.14041425       2.14460059       6.35914347       0.00000000 NULL
P        4.60438178       5.86017431       7.21457923       0.00000000 NULL
P        2.00675759       5.51036673       0.72849459       0.00000000 NULL
P        3.74315621       5.21582272       3.88152089       0.00000000 NULL
P        0.71062405       2.82608073       1.12801751       0.00000000 NULL
P        1.21556831       2.74280302       3.22551591       0.00000000 NULL
P        1.62967463       4.34482709       4.79403915       0.00000000 NULL
9
Lattice="3.258487100005194 -0.7881063238824421 0.1337261860142051 0.35772436555272863 6.517709064480262 -0.36689289290882454 1.3694371823348395 2.023513372312527 7.3301831950219505" Properties=species:S:1:pos:R:3:initial_magmoms:R:1:castep_labels:S:1 n_minim_iter=23 pbc="T T T"
P        2.01570742       0.42074458       2.78300314       0.00000000 NULL
P        1.73095231       7.74703678       5.19366916       0.00000000 NULL
P        3.17718558       2.13217639       6.45469630       0.00000000 NULL
P        4.65050258       5.88722822       7.31195677       0.00000000 NULL
P        2.01843903       5.57656377       0.71533917       0.00000000 NULL
P        3.77774811       5.25835436       3.92098253       0.00000000 NULL
P        0.71595955       2.85170384       1.13294290       0.00000000 NULL
P        1.22693070       2.75873246       3.26836508       0.00000000 NULL
P        1.64375853       4.37708515       4.85210964       0.00000000 NULL
9
Lattice="3.2598471988119777 -0.7916211739945106 0.13133204981869265 0.3534211873126887 6.514866521352871 -0.3717532741486094 1.3632705732753063 2.015943255223407 7.316674869005153" Properties=species:S:1:pos:R:3:initial_magmoms:R:1:castep_labels:S:1 n_minim_iter=24 pbc="T T T"
P        2.01412856       0.41527131       2.77930813       0.00000000 NULL
P        1.71920043       7.74130599       5.17799911       0.00000000 NULL
P        3.17446294       2.12193194       6.44080697       0.00000000 NULL
P        4.64326795       5.87340962       7.29522783       0.00000000 NULL
P        2.01291566       5.57085504       0.70730085       0.00000000 NULL
P        3.77293894       5.24852992       3.90730240       0.00000000 NULL
P        0.71445237       2.84496504       1.12859496       0.00000000 NULL
P        1.22323910       2.75361051       3.26084768       0.00000000 NULL
P        1.63709623       4.37529415       4.83644547       0.00000000 NULL
9
Lattice="3.2660230039936367 -0.802918303129022 0.1259885011958929 0.3403982459394944 6.517187557909447 -0.38798426235201977 1.3489288160436128 1.9942976704738842 7.296168155998588" Properties=species:S:1:pos:R:3:initial_magmoms:R:1:castep_labels:S:1 n_minim_iter=25 pbc="T T T"
P        2.01183361       0.39933066       2.77580005       0.00000000 NULL
P        1.68796861       7.73437357       5.14485137       0.00000000 NULL
P        3.17050233       2.09366204       6.41749325       0.00000000 NULL
P        4.62741054       5.84012331       7.26524858       0.00000000 NULL
P        1.99828350       5.56290978       0.68566358       0.00000000 NULL
P        3.76210508       5.22760687       3.87763046       0.00000000 NULL
P        0.71052155       2.83020859       1.11824932       0.00000000 NULL
P        1.21432955       2.74181040       3.24724759       0.00000000 NULL
P        1.62066147       4.37396514       4.80392618       0.00000000 NULL
9
Lattice="3.2937686678432763 -0.8807090554429898 0.0975592789738317 0.24410514109646492 6.543977274202196 -0.4831300576259264 1.2593212956032125 1.867986845778295 7.2260903494518045" Properties=species:S:1:pos:R:3:initial_magmoms:R:1:castep_labels:S:1 n_minim_iter=26 pbc="T T T"
P        1.99174247       0.29966293       2.77840869       0.00000000 NULL
P        1.47535896       7.70871013       4.99034109       0.00000000 NULL
P        3.13866090       1.92186250       6.32706105       0.00000000 NULL
P        4.50704918       5.64391480       7.14551872       0.00000000 NULL
P        1.89001271       5.52014244       0.56622822       0.00000000 NULL
P        3.67147057       5.11077501       3.72942767       0.00000000 NULL
P        0.67962035       2.74371322       1.06501250       0.00000000 NULL
P        1.15309708       2.67213020       3.19241568       0.00000000 NULL
P        1.51150697       4.37458291       4.64540360       0.00000000 NULL
