12
Lattice="4.313049999998193 -3.948804051571826e-06 0.0 -2.1565208983544264 4.479990931425997 0.0 0.0 0.0 13.74034" Properties=species:S:1:pos:R:3:initial_magmoms:R:1:castep_labels:S:1 n_minim_iter=1 pbc="T T T"
P        1.06793270       3.25293065       8.29180054       0.00000000 NULL
P        3.22445585       1.22705349       5.44853946       0.00000000 NULL
P        1.06793085       1.22705547       8.29180054       0.00000000 NULL
P       -1.08859230       3.25293263       5.44853946       0.00000000 NULL
P       -1.67545481       4.39884221       9.69477032       0.00000000 NULL
P        0.48106624       0.08114696       4.04556968       0.00000000 NULL
P        2.63759124       0.08114498       9.69477032       0.00000000 NULL
P        0.48107019       4.39884024       4.04556968       0.00000000 NULL
P        1.46900745       0.33234574       0.97292874       0.00000000 NULL
P       -0.68751406       4.14764163      12.76741126       0.00000000 NULL
P        1.46901094       4.14763965       0.97292874       0.00000000 NULL
P        3.62553245       0.33234376      12.76741126       0.00000000 NULL
12
Lattice="4.324195253137217 -3.959008065147988e-06 0.0 -2.1620935184384598 4.487074649143251 0.0 0.0 0.0 13.76056612884101" Properties=species:S:1:pos:R:3:initial_magmoms:R:1:castep_labels:S:1 n_minim_iter=2 pbc="T T T"
P        1.07079885       3.25809696       8.30383011       0.00000000 NULL
P        3.23289462       1.22897089       5.45673602       0.00000000 NULL
P        1.07079699       1.22897287       8.30383011       0.00000000 NULL
P       -1.09129878       3.25809894       5.45673602       0.00000000 NULL
P       -1.67989125       4.40558884       9.70925062       0.00000000 NULL
P        0.48220241       0.08148405       4.05131550       0.00000000 NULL
P        2.64430004       0.08148207       9.70925062       0.00000000 NULL
P        0.48220637       4.40558686       4.05131550       0.00000000 NULL
P        1.47280388       0.33300823       0.97458220       0.00000000 NULL
P       -0.68929025       4.15406284      12.78598393       0.00000000 NULL
P        1.47280738       4.15406086       0.97458220       0.00000000 NULL
P        3.63490151       0.33300625      12.78598393       0.00000000 NULL
12
Lattice="4.61861236268405 -4.228561043929379e-06 0.0 -2.309301906041484 4.669665322355638 0.0 0.0 0.0 14.284625146083439" Properties=species:S:1:pos:R:3:initial_magmoms:R:1:castep_labels:S:1 n_minim_iter=3 pbc="T T T"
P        1.14666403       3.39131442       8.61538215       0.00000000 NULL
P        3.45596827       1.27834366       5.66924300       0.00000000 NULL
P        1.14666209       1.27834577       8.61538215       0.00000000 NULL
P       -1.16264215       3.39131654       5.66924300       0.00000000 NULL
P       -1.79723755       4.57926599      10.08459027       0.00000000 NULL
P        0.51206452       0.09039747       4.20003487       0.00000000 NULL
P        2.82137070       0.09039536      10.08459027       0.00000000 NULL
P        0.51206863       4.57926388       4.20003487       0.00000000 NULL
P        1.57309145       0.35022219       1.01757674       0.00000000 NULL
P       -0.73621109       4.31943933      13.26704841       0.00000000 NULL
P        1.57309509       4.31943722       1.01757674       0.00000000 NULL
P        3.88239763       0.35022008      13.26704841       0.00000000 NULL
12
Lattice="4.728620151640626 -4.329278448724031e-06 0.0 -2.3643058000945523 4.670129816182276 0.0 0.0 0.0 14.349057852247284" Properties=species:S:1:pos:R:3:initial_magmoms:R:1:castep_labels:S:1 n_minim_iter=4 pbc="T T T"
P        1.17625826       3.39280227       8.65228019       0.00000000 NULL
P        3.54056639       1.27732015       5.69677766       0.00000000 NULL
P        1.17625632       1.27732231       8.65228019       0.00000000 NULL
P       -1.18805182       3.39280443       5.69677766       0.00000000 NULL
P       -1.84231245       4.57644376      10.13206319       0.00000000 NULL
P        0.52199352       0.09368419       4.21699466       0.00000000 NULL
P        2.88630360       0.09368202      10.13206319       0.00000000 NULL
P        0.52199763       4.57644159       4.21699466       0.00000000 NULL
P        1.61054481       0.35177657       1.02378867       0.00000000 NULL
P       -0.75376164       4.31834938      13.32526918       0.00000000 NULL
P        1.61054844       4.31834721       1.02378867       0.00000000 NULL
P        3.97485488       0.35177441      13.32526918       0.00000000 NULL
12
Lattice="4.773848869559655 -4.370687508333272e-06 0.0 -2.386920188952657 4.637473338363854 0.0 0.0 0.0 14.340798779942187" Properties=species:S:1:pos:R:3:initial_magmoms:R:1:castep_labels:S:1 n_minim_iter=5 pbc="T T T"
P        1.19034829       3.37110748       8.64535247       0.00000000 NULL
P        3.57727079       1.26635840       5.69544631       0.00000000 NULL
P        1.19034636       1.26636058       8.64535247       0.00000000 NULL
P       -1.19657615       3.37110966       5.69544631       0.00000000 NULL
P       -1.86274458       4.54080651      10.12786029       0.00000000 NULL
P        0.52417578       0.09666496       4.21293849       0.00000000 NULL
P        2.91110022       0.09666277      10.12786029       0.00000000 NULL
P        0.52417985       4.54080433       4.21293849       0.00000000 NULL
P        1.62592073       0.35017527       1.02412341       0.00000000 NULL
P       -0.76100010       4.28729418      13.31667537       0.00000000 NULL
P        1.62592433       4.28729200       1.02412341       0.00000000 NULL
P        4.01284516       0.35017308      13.31667537       0.00000000 NULL
12
Lattice="4.783139565315372 -4.379193585709591e-06 0.0 -2.391565568848758 4.602501670286211 0.0 0.0 0.0 14.330585103208971" Properties=species:S:1:pos:R:3:initial_magmoms:R:1:castep_labels:S:1 n_minim_iter=6 pbc="T T T"
P        1.19628650       3.34876357       8.63679283       0.00000000 NULL
P        3.58785436       1.25373063       5.69379227       0.00000000 NULL
P        1.19628458       1.25373282       8.63679283       0.00000000 NULL
P       -1.19528328       3.34876576       5.69379227       0.00000000 NULL
P       -1.86995505       4.50213652      10.12256383       0.00000000 NULL
P        0.52161070       0.10036329       4.20802127       0.00000000 NULL
P        2.91318048       0.10036110      10.12256383       0.00000000 NULL
P        0.52161473       4.50213433       4.20802127       0.00000000 NULL
P        1.62904863       0.34815825       1.02427931       0.00000000 NULL
P       -0.76251758       4.25433953      13.30630579       0.00000000 NULL
P        1.62905221       4.25433734       1.02427931       0.00000000 NULL
P        4.02061841       0.34815606      13.30630579       0.00000000 NULL
12
Lattice="4.789449158548712 -4.384970320805955e-06 0.0 -2.3947203954216936 4.569782178932762 0.0 0.0 0.0 14.336613453508747" Properties=species:S:1:pos:R:3:initial_magmoms:R:1:castep_labels:S:1 n_minim_iter=7 pbc="T T T"
P        1.20375577       3.33049766       8.63654115       0.00000000 NULL
P        3.59847844       1.23927703       5.70007230       0.00000000 NULL
P        1.20375386       1.23927922       8.63654115       0.00000000 NULL
P       -1.19096881       3.33049985       5.70007230       0.00000000 NULL
P       -1.87825747       4.46307592      10.13002011       0.00000000 NULL
P        0.51646312       0.10670442       4.20659335       0.00000000 NULL
P        2.91118770       0.10670223      10.13002011       0.00000000 NULL
P        0.51646711       4.46307372       4.20659335       0.00000000 NULL
P        1.63114198       0.34654106       1.02613918       0.00000000 NULL
P       -0.76357905       4.22323723      13.31047427       0.00000000 NULL
P        1.63114553       4.22323504       1.02613918       0.00000000 NULL
P        4.02586656       0.34653887      13.31047427       0.00000000 NULL
12
Lattice="4.787924867916633 -4.383574759663961e-06 0.0 -2.393958303110951 4.51188756180044 0.0 0.0 0.0 14.290869183111683" Properties=species:S:1:pos:R:3:initial_magmoms:R:1:castep_labels:S:1 n_minim_iter=8 pbc="T T T"
P        1.21754952       3.30277601       8.60054086       0.00000000 NULL
P        3.61151004       1.20910405       5.69032833       0.00000000 NULL
P        1.21754760       1.20910624       8.60054086       0.00000000 NULL
P       -1.17641292       3.30277820       5.69032833       0.00000000 NULL
P       -1.89171230       4.39016944      10.10476309       0.00000000 NULL
P        0.50224622       0.12171631       4.18610610       0.00000000 NULL
P        2.89620866       0.12171412      10.10476309       0.00000000 NULL
P        0.50225013       4.39016725       4.18610610       0.00000000 NULL
P        1.63049851       0.34364909       1.02573158       0.00000000 NULL
P       -0.76346042       4.16823460      13.26513760       0.00000000 NULL
P        1.63050201       4.16823241       1.02573158       0.00000000 NULL
P        4.02446094       0.34364690      13.26513760       0.00000000 NULL
