10
Lattice="3.884580000000001 0.0 4.9130184253008504e-17 0.0 7.3076799999999995 0.0 -0.23633889264086366 0.0 7.596524466348102" Properties=species:S:1:pos:R:3:initial_magmoms:R:1:castep_labels:S:1 n_minim_iter=1 pbc="T T T"
P        3.53143648       7.23334043       0.90181001       0.00000000 NULL
P        0.11680463       3.57950043       6.69471446       0.00000000 NULL
P        0.30710818       3.29122123       1.09679988       0.00000000 NULL
P        3.34113293       6.94506123       6.49972459       0.00000000 NULL
P        1.70566629       3.23541832       2.55242690       0.00000000 NULL
P        1.94257482       6.88925832       5.04409757       0.00000000 NULL
P        0.85894308       5.72066748       1.45188954       0.00000000 NULL
P        2.78929803       2.06682748       6.14463493       0.00000000 NULL
P        3.11643853       1.81113030       3.85089779       0.00000000 NULL
P        0.53180258       5.46497030       3.74562668       0.00000000 NULL
10
Lattice="3.884522402276913 6.84785389054346e-19 0.0029722212541360375 1.2882197024864079e-18 7.306296100224414 8.71712807444637e-19 -0.2305230350556068 8.645057325195407e-19 7.60027674020439" Properties=species:S:1:pos:R:3:initial_magmoms:R:1:castep_labels:S:1 n_minim_iter=2 pbc="T T T"
P        3.53188997       7.23213013       0.90513402       0.00000000 NULL
P        0.12210940       3.57898208       6.69811494       0.00000000 NULL
P        0.30771015       3.29063264       1.09766720       0.00000000 NULL
P        3.34628922       6.94378069       6.50558176       0.00000000 NULL
P        1.70780322       3.23484012       2.55527097       0.00000000 NULL
P        1.94619615       6.88798817       5.04797800       0.00000000 NULL
P        0.86020770       5.71939800       1.45346468       0.00000000 NULL
P        2.79379167       2.06624995       6.14978429       0.00000000 NULL
P        3.11930931       1.81074472       3.85535413       0.00000000 NULL
P        0.53469006       5.46389277       3.74789484       0.00000000 NULL
10
Lattice="3.8823467512858745 6.691291684997634e-19 0.08392636830093614 1.283202884874149e-18 7.266615060843338 8.844175808302128e-19 -0.0720800760640671 8.332749366034355e-19 7.700635350811019" Properties=species:S:1:pos:R:3:initial_magmoms:R:1:castep_labels:S:1 n_minim_iter=3 pbc="T T T"
P        3.54380088       7.19713847       0.99536537       0.00000000 NULL
P        0.26646579       3.56383094       6.78919635       0.00000000 NULL
P        0.32415460       3.27371908       1.12093326       0.00000000 NULL
P        3.48611207       6.90702661       6.66362846       0.00000000 NULL
P        1.76580083       3.21821432       2.63226117       0.00000000 NULL
P        2.04446585       6.85152185       5.15230056       0.00000000 NULL
P        0.89459604       5.68330678       1.49617228       0.00000000 NULL
P        2.91567064       2.04999925       6.28838945       0.00000000 NULL
P        3.19706564       1.79975161       3.97583176       0.00000000 NULL
P        0.61320104       5.43305915       3.80872996       0.00000000 NULL
10
Lattice="3.842635539306525 6.35380885631151e-19 0.15381357285144392 1.2394123627772673e-18 7.1702443274841645 8.84069512163048e-19 0.06700450016225122 7.979598543029116e-19 7.698733015338695" Properties=species:S:1:pos:R:3:initial_magmoms:R:1:castep_labels:S:1 n_minim_iter=4 pbc="T T T"
P        3.51957289       7.10514251       1.06232861       0.00000000 NULL
P        0.39006715       3.52002034       6.79021798       0.00000000 NULL
P        0.33580183       3.23178953       1.12869297       0.00000000 NULL
P        3.57383821       6.81691169       6.72385362       0.00000000 NULL
P        1.79879373       3.17665651       2.66871083       0.00000000 NULL
P        2.11084631       6.76177868       5.18383576       0.00000000 NULL
P        0.91631923       5.60316602       1.51694417       0.00000000 NULL
P        2.99332082       2.01804386       6.33560243       0.00000000 NULL
P        3.23398359       1.77458833       4.03587514       0.00000000 NULL
P        0.67565645       5.35971050       3.81667145       0.00000000 NULL
10
Lattice="3.68581827219034 6.536587564150733e-17 0.425943568451113 1.2196368828515554e-16 6.82941108945883 4.3172735199649085e-18 0.6087115029417781 5.478221621795301e-18 7.71893093254828" Properties=species:S:1:pos:R:3:initial_magmoms:R:1:castep_labels:S:1 n_minim_iter=5 pbc="T T T"
P        3.42544826       6.78033351       1.32455060       0.00000000 NULL
P        0.86908152       3.36562796       6.82032391       0.00000000 NULL
P        0.38462844       3.08391352       1.16270402       0.00000000 NULL
P        3.90990134       6.49861906       6.98217049       0.00000000 NULL
P        1.92483629       3.02949623       2.82000078       0.00000000 NULL
P        2.36969349       6.44420177       5.32487372       0.00000000 NULL
P        1.00102616       5.31951481       1.60331392       0.00000000 NULL
P        3.29350362       1.90480927       6.54156058       0.00000000 NULL
P        3.37789932       1.68502746       4.28332843       0.00000000 NULL
P        0.91663046       5.09973301       3.86154608       0.00000000 NULL
10
Lattice="3.5603402662220147 5.522223186917978e-17 0.8228121899378911 1.0512348974080646e-16 6.648334678366006 -2.382522553806764e-17 1.3924455297944847 -4.222653212466123e-17 8.236736862818693" Properties=species:S:1:pos:R:3:initial_magmoms:R:1:castep_labels:S:1 n_minim_iter=6 pbc="T T T"
P        3.38600412       6.62339519       1.76507308       0.00000000 NULL
P        1.56678168       3.29922785       7.29447597       0.00000000 NULL
P        0.47523422       3.01060055       1.28536124       0.00000000 NULL
P        4.47755158       6.33476789       7.77418782       0.00000000 NULL
P        2.15178623       2.94453080       3.21152656       0.00000000 NULL
P        2.80099957       6.26869814       5.84802250       0.00000000 NULL
P        1.15214386       5.15926791       1.82224935       0.00000000 NULL
P        3.80064194       1.83510057       7.23729971       0.00000000 NULL
P        3.67713289       1.63290384       4.89207241       0.00000000 NULL
P        1.27565291       4.95707118       4.16747665       0.00000000 NULL
10
Lattice="3.523768344111536 4.8534391450540757e-17 0.6924373538678201 9.52932699926503e-17 6.409606632917959 -1.8433794311473314e-17 1.1397149219992841 -3.372160430723764e-17 7.8062899227745035" Properties=species:S:1:pos:R:3:initial_magmoms:R:1:castep_labels:S:1 n_minim_iter=7 pbc="T T T"
P        3.31339965       6.38844767       1.59439952       0.00000000 NULL
P        1.35008362       3.18364435       6.90432776       0.00000000 NULL
P        0.43937474       2.90865955       1.20949316       0.00000000 NULL
P        4.22410853       6.11346287       7.28923412       0.00000000 NULL
P        2.04893384       2.83242771       3.01834568       0.00000000 NULL
P        2.61454943       6.03723103       5.48038160       0.00000000 NULL
P        1.10172013       4.97258299       1.71287877       0.00000000 NULL
P        3.56176314       1.76777967       6.78584851       0.00000000 NULL
P        3.51733060       1.57301837       4.57498994       0.00000000 NULL
P        1.14615267       4.77782168       3.92373734       0.00000000 NULL
10
Lattice="3.586193948847179 4.886303693618856e-17 0.7172254179800637 1.0246021639129687e-16 6.5650702011623965 -5.583864547796793e-17 1.184391447442553 -7.868030991286354e-17 8.073790429410371" Properties=species:S:1:pos:R:3:initial_magmoms:R:1:castep_labels:S:1 n_minim_iter=8 pbc="T T T"
P        3.37128509       6.54781875       1.65242258       0.00000000 NULL
P        1.39930030       3.26528365       7.13859327       0.00000000 NULL
P        0.45090537       2.97907973       1.25172027       0.00000000 NULL
P        4.31968003       6.26161483       7.53929558       0.00000000 NULL
P        2.09627840       2.89722226       3.12912277       0.00000000 NULL
P        2.67430699       6.17975736       5.66189308       0.00000000 NULL
P        1.13055381       5.09329486       1.77376683       0.00000000 NULL
P        3.64003159       1.81075976       7.01724902       0.00000000 NULL
P        3.59167782       1.61068192       4.73304277       0.00000000 NULL
P        1.17890758       4.89321703       4.05797308       0.00000000 NULL
10
Lattice="3.5662619536108595 4.819557794852248e-17 0.7121743252153221 1.0100069824029711e-16 6.535549069251023 -5.513865666340978e-17 1.1757264066693196 -7.795987678349916e-17 8.03054977405169" Properties=species:S:1:pos:R:3:initial_magmoms:R:1:castep_labels:S:1 n_minim_iter=9 pbc="T T T"
P        3.35015235       6.51981285       1.64340778       0.00000000 NULL
P        1.39183601       3.25203831       7.09931632       0.00000000 NULL
P        0.44806825       2.96674817       1.24495466       0.00000000 NULL
P        4.29392011       6.23452271       7.49776945       0.00000000 NULL
P        2.08550478       2.88199513       3.11627193       0.00000000 NULL
P        2.65648358       6.14976966       5.62645217       0.00000000 NULL
P        1.12612030       5.07039558       1.76520689       0.00000000 NULL
P        3.61586807       1.80262105       6.97751721       0.00000000 NULL
P        3.57050824       1.60313254       4.70880874       0.00000000 NULL
P        1.17148012       4.87090707       4.03391537       0.00000000 NULL
10
Lattice="3.5593808572863783 4.8200734983882896e-17 0.7099705686771587 1.0084908426721887e-16 6.532066900673641 -5.5128231627696136e-17 1.1718354790080165 -7.786894491557225e-17 8.030027250241345" Properties=species:S:1:pos:R:3:initial_magmoms:R:1:castep_labels:S:1 n_minim_iter=10 pbc="T T T"
P        3.34106989       6.51818326       1.64247205       0.00000000 NULL
P        1.39014645       3.25214981       7.09752578       0.00000000 NULL
P        0.44699971       2.96608906       1.24477515       0.00000000 NULL
P        4.28421663       6.23212251       7.49522267       0.00000000 NULL
P        2.08271016       2.87789436       3.12002346       0.00000000 NULL
P        2.64850618       6.14392781       5.61997436       0.00000000 NULL
P        1.12619891       5.06782185       1.76583744       0.00000000 NULL
P        3.60501743       1.80178840       6.97416038       0.00000000 NULL
P        3.56257144       1.60195003       4.70857667       0.00000000 NULL
P        1.16864490       4.86798349       4.03142115       0.00000000 NULL
10
Lattice="3.5176670857417056 4.394867487912882e-17 0.692513376779726 9.638653235976703e-17 6.513248475979676 -5.2483460693573476e-17 1.1402347914722109 -7.545600849882557e-17 8.037345370045356" Properties=species:S:1:pos:R:3:initial_magmoms:R:1:castep_labels:S:1 n_minim_iter=11 pbc="T T T"
P        3.28288564       6.51214928       1.63565423       0.00000000 NULL
P        1.37501624       3.25552504       7.09420452       0.00000000 NULL
P        0.43955232       2.96392360       1.24497210       0.00000000 NULL
P        4.21834956       6.22054784       7.48488665       0.00000000 NULL
P        2.06457318       2.85124606       3.14949433       0.00000000 NULL
P        2.59332870       6.10787030       5.58036443       0.00000000 NULL
P        1.12715580       5.05477734       1.77122492       0.00000000 NULL
P        3.53074608       1.79815310       6.95863383       0.00000000 NULL
P        3.50995536       1.59501261       4.71032674       0.00000000 NULL
P        1.14794652       4.85163685       4.01953202       0.00000000 NULL
10
Lattice="3.4631401946934717 2.9269043741543977e-17 0.6320123612429953 7.375565952251753e-17 6.444533388029475 -3.544052273754855e-17 1.0252389309894332 -5.732160040859618e-17 8.025498870087073" Properties=species:S:1:pos:R:3:initial_magmoms:R:1:castep_labels:S:1 n_minim_iter=12 pbc="T T T"
P        3.18234415       6.46783126       1.59829727       0.00000000 NULL
P        1.30603498       3.24556456       7.05921396       0.00000000 NULL
P        0.42100657       2.94628993       1.23886219       0.00000000 NULL
P        4.06737256       6.16855663       7.41864904       0.00000000 NULL
P        2.02694576       2.77486059       3.19869956       0.00000000 NULL
P        2.46143337       5.99712729       5.45881167       0.00000000 NULL
P        1.12648785       5.01555727       1.76089713       0.00000000 NULL
P        3.36189128       1.79329058       6.89661410       0.00000000 NULL
P        3.39919591       1.57236039       4.67293164       0.00000000 NULL
P        1.08918322       4.79462708       3.98457959       0.00000000 NULL
10
Lattice="3.4542713346563567 3.0367057460461244e-17 0.7443339934524299 7.4226155547385e-17 6.510046354086879 -3.555453442768099e-17 1.2454300671584084 -6.038729969328207e-17 8.053073099548286" Properties=species:S:1:pos:R:3:initial_magmoms:R:1:castep_labels:S:1 n_minim_iter=13 pbc="T T T"
P        3.18122490       6.54492023       1.70802397       0.00000000 NULL
P        1.51847651       3.28989706       7.08938313       0.00000000 NULL
P        0.44965706       2.98179226       1.25059540       0.00000000 NULL
P        4.25004435       6.23681544       7.54681170       0.00000000 NULL
P        2.12202645       2.77300994       3.30798846       0.00000000 NULL
P        2.57767495       6.02803312       5.48941864       0.00000000 NULL
P        1.18661850       5.08616397       1.79081084       0.00000000 NULL
P        3.51308290       1.83114079       7.00659626       0.00000000 NULL
P        3.50527548       1.58189272       4.78299869       0.00000000 NULL
P        1.19442593       4.83691589       4.01440840       0.00000000 NULL
10
Lattice="3.4268126227285127 6.41839623502372e-18 0.6606265772445691 3.789737014622837e-17 6.352787123588048 -5.3775771835048163e-17 1.0834058911426134 -8.786749605460352e-17 7.92871795870751" Properties=species:S:1:pos:R:3:initial_magmoms:R:1:castep_labels:S:1 n_minim_iter=14 pbc="T T T"
P        3.13360067       6.38692904       1.62055357       0.00000000 NULL
P        1.37661785       3.21053548       6.96879097       0.00000000 NULL
P        0.42657676       2.91308431       1.22627903       0.00000000 NULL
P        4.08364176       6.08947788       7.36306551       0.00000000 NULL
P        2.05138042       2.70145823       3.23113426       0.00000000 NULL
P        2.45883809       5.87785179       5.35821028       0.00000000 NULL
P        1.14872265       4.96604926       1.74158368       0.00000000 NULL
P        3.36149587       1.78965570       6.84776086       0.00000000 NULL
P        3.39762510       1.54206517       4.64958600       0.00000000 NULL
P        1.11259341       4.71845873       3.93975854       0.00000000 NULL
10
Lattice="3.4563134499492194 7.0520081941632e-18 0.6717202186216473 3.92446291516686e-17 6.4258546471815485 -5.491906143591406e-17 1.10330532050294 -8.923007146717518e-17 8.041317036311712" Properties=species:S:1:pos:R:3:initial_magmoms:R:1:castep_labels:S:1 n_minim_iter=15 pbc="T T T"
P        3.15999365       6.46189025       1.64622330       0.00000000 NULL
P        1.39962513       3.24896292       7.06681396       0.00000000 NULL
P        0.43209353       2.94695648       1.24399825       0.00000000 NULL
P        4.12752525       6.15988381       7.46903901       0.00000000 NULL
P        2.07415847       2.72985483       3.28185581       0.00000000 NULL
P        2.48546030       5.94278215       5.43118145       0.00000000 NULL
P        1.16247407       5.02508670       1.76611940       0.00000000 NULL
P        3.39714470       1.81215938       6.94691786       0.00000000 NULL
P        3.43264975       1.55868852       4.71701222       0.00000000 NULL
P        1.12696902       4.77161584       3.99602504       0.00000000 NULL
10
Lattice="3.4484568656462558 6.922650480372073e-18 0.6658500130473208 3.899073521232215e-17 6.40937408022643 -5.459107229489128e-17 1.0923037852446236 -8.88539449054929e-17 8.008017852189354" Properties=species:S:1:pos:R:3:initial_magmoms:R:1:castep_labels:S:1 n_minim_iter=16 pbc="T T T"
P        3.15042757       6.44576860       1.63708318       0.00000000 NULL
P        1.39033308       3.24108156       7.03678469       0.00000000 NULL
P        0.43002706       2.94012929       1.23856873       0.00000000 NULL
P        4.11073360       6.14481633       7.43529914       0.00000000 NULL
P        2.06724726       2.72108912       3.26950442       0.00000000 NULL
P        2.47351339       5.92577616       5.40436345       0.00000000 NULL
P        1.15919120       5.01341069       1.75765036       0.00000000 NULL
P        3.38156945       1.80872365       6.91621750       0.00000000 NULL
P        3.42059463       1.55406102       4.69544273       0.00000000 NULL
P        1.12016602       4.75874806       3.97842514       0.00000000 NULL
