64
Lattice="7.363238275954848 0.0 0.0 0.0 15.2700789120951 0.0 0.0 0.0 10.112012878132395" Properties=species:S:1:pos:R:3:initial_magmoms:R:1:castep_labels:S:1:forces:R:3 n_minim_iter=15 energy=-347.787220015941 stress="1.926177801165409e-06 0.0 0.0 0.0 5.998416714131548e-06 0.0 0.0 0.0 -3.474156308038067e-06" free_energy=-347.787220015941 pbc="T T T"
P        1.79077089       1.01325663       1.42553331       0.00000000 NULL       0.00060000      -0.00046100      -0.00154800
P        5.57246739       1.01325663       8.68647957       0.00000000 NULL      -0.00060000      -0.00046100       0.00154800
P        5.57246739       1.01325663       6.48153975       0.00000000 NULL      -0.00060000      -0.00046000      -0.00154800
P        1.79077089       1.01325663       3.63047313       0.00000000 NULL       0.00060000      -0.00046000       0.00154800
P        2.41604373      10.13974256       8.97890466       0.00000000 NULL      -0.00386400      -0.00169500      -0.00390600
P        4.94719455      10.13974256       1.13310821       0.00000000 NULL       0.00386400      -0.00169500       0.00390600
P        4.94719455      10.13974256       3.92289823       0.00000000 NULL       0.00386400      -0.00169500      -0.00390700
P        2.41604373      10.13974256       6.18911465       0.00000000 NULL      -0.00386400      -0.00169500       0.00390700
P       -0.00081473       7.81699809       8.72330655       0.00000000 NULL      -0.00268900      -0.00121300       0.00201100
P        7.36405301       7.81699809       1.38870633       0.00000000 NULL       0.00268900      -0.00121300      -0.00201100
P        7.36405301       7.81699809       3.66730011       0.00000000 NULL       0.00268900      -0.00121300       0.00201100
P       -0.00081473       7.81699809       6.44471277       0.00000000 NULL      -0.00268900      -0.00121300      -0.00201100
P        3.78811338      -0.28489304       6.16157965       0.00000000 NULL       0.00455600      -0.00217400       0.00299500
P        3.57512489      -0.28489304       3.95043323       0.00000000 NULL      -0.00455600      -0.00217400      -0.00299500
P        3.57512489      -0.28489304       1.10557321       0.00000000 NULL      -0.00455600      -0.00217400       0.00299400
P        3.78811338      -0.28489304       9.00643967       0.00000000 NULL       0.00455600      -0.00217400      -0.00299400
P        2.44293059       7.74819573       6.46987890       0.00000000 NULL       0.00015300       0.00285800       0.00035600
P        4.92030769       7.74819573       3.64213397       0.00000000 NULL      -0.00015300       0.00285800      -0.00035600
P        4.92030769       7.74819573       1.41387247       0.00000000 NULL      -0.00015300       0.00285800       0.00035600
P        2.44293059       7.74819573       8.69814041       0.00000000 NULL       0.00015300       0.00285800      -0.00035600
P        2.23866283      12.43157789       6.46243087       0.00000000 NULL      -0.00200700       0.00104200       0.00063400
P        5.12457544      12.43157789       3.64958200       0.00000000 NULL       0.00200700       0.00104200      -0.00063400
P        5.12457544      12.43157789       1.40642443       0.00000000 NULL       0.00200700       0.00104200       0.00063400
P        2.23866283      12.43157789       8.70558844       0.00000000 NULL      -0.00200700       0.00104200      -0.00063400
P        7.41816193      -0.19792988       6.15408221       0.00000000 NULL      -0.00537700       0.00518700      -0.00357800
P       -0.05492365      -0.19792988       3.95793067       0.00000000 NULL       0.00537700       0.00518700       0.00357800
P       -0.05492365      -0.19792988       1.09807577       0.00000000 NULL       0.00537700       0.00518700      -0.00358000
P        7.41816193      -0.19792988       9.01393711       0.00000000 NULL      -0.00537700       0.00518700       0.00357900
P       -0.37682606      12.91475503       6.47057387       0.00000000 NULL       0.00357700      -0.00238700       0.00263000
P        7.74006434      12.91475503       3.64143901       0.00000000 NULL      -0.00357700      -0.00238700      -0.00263100
P        7.74006434      12.91475503       1.41456743       0.00000000 NULL      -0.00357700      -0.00238700       0.00263000
P       -0.37682606      12.91475503       8.69744544       0.00000000 NULL       0.00357700      -0.00238700      -0.00263000
P        2.49132174       7.84532362       1.39205469       0.00000000 NULL      -0.00463300      -0.00283400      -0.00101200
P        4.87191653       7.84532362       8.71995818       0.00000000 NULL       0.00463300      -0.00283400       0.00101200
P        4.87191653       7.84532362       6.44806113       0.00000000 NULL       0.00463300      -0.00283400      -0.00101200
P        2.49132174       7.84532362       3.66395175       0.00000000 NULL      -0.00463300      -0.00283400       0.00101200
P        2.77130355      12.89241642       1.40123092       0.00000000 NULL      -0.00184500      -0.00311600       0.00271200
P        4.59193473      12.89241642       8.71078196       0.00000000 NULL       0.00184500      -0.00311600      -0.00271200
P        4.59193473      12.89241642       6.45723736       0.00000000 NULL       0.00184500      -0.00311600       0.00271200
P        2.77130355      12.89241642       3.65477552       0.00000000 NULL      -0.00184500      -0.00311600      -0.00271200
P       -0.21397236       5.08908314       6.14272492       0.00000000 NULL       0.00241100       0.00152400       0.00433700
P        7.57721064       5.08908314       3.96928796       0.00000000 NULL      -0.00241100       0.00152400      -0.00433700
P        7.57721064       5.08908314       1.08671848       0.00000000 NULL      -0.00241100       0.00152400       0.00433600
P       -0.21397236       5.08908314       9.02529440       0.00000000 NULL       0.00241100       0.00152400      -0.00433600
P        0.16976559       2.92775566       8.67967217       0.00000000 NULL      -0.00330800       0.00460300      -0.00283500
P        7.19347268       2.92775566       1.43234071       0.00000000 NULL       0.00330800       0.00460300       0.00283500
P        7.19347268       2.92775566       3.62366573       0.00000000 NULL       0.00330800       0.00460300      -0.00283500
P        0.16976559       2.92775566       6.48834715       0.00000000 NULL      -0.00330800       0.00460300       0.00283500
P        4.39324831       3.35250970       4.20550777       0.00000000 NULL      -0.00000700       0.00386500      -0.00056200
P        2.96998997       3.35250970       5.90650511       0.00000000 NULL       0.00000700       0.00386500       0.00056200
P        2.96998997       3.35250970       9.26151420       0.00000000 NULL       0.00000700       0.00386500      -0.00056000
P        4.39324831       3.35250970       0.85049867       0.00000000 NULL      -0.00000700       0.00386500       0.00056000
P        2.44912878      10.08901094       3.90917784       0.00000000 NULL      -0.00160400      -0.00561100      -0.00053200
P        4.91410950      10.08901094       6.20283503       0.00000000 NULL       0.00160400      -0.00561100       0.00053200
P        4.91410950      10.08901094       8.96518428       0.00000000 NULL       0.00160400      -0.00561100      -0.00053100
P        2.44912878      10.08901094       1.14682860       0.00000000 NULL      -0.00160400      -0.00561100       0.00053100
P        7.38426403      10.07532632       1.14072986       0.00000000 NULL      -0.00402500       0.00218100       0.00415800
P       -0.02102575      10.07532632       8.97128302       0.00000000 NULL       0.00402500       0.00218100      -0.00415800
P       -0.02102575      10.07532632       6.19673629       0.00000000 NULL       0.00402500       0.00218100       0.00415800
P        7.38426403      10.07532632       3.91527658       0.00000000 NULL      -0.00402500       0.00218100      -0.00415800
P        2.79323988       4.88437136       4.35299903       0.00000000 NULL      -0.00556400      -0.00177000      -0.00560300
P        4.56999840       4.88437136       5.75901385       0.00000000 NULL       0.00556400      -0.00177000       0.00560300
P        4.56999840       4.88437136       9.40900547       0.00000000 NULL       0.00556400      -0.00177000      -0.00560200
P        2.79323988       4.88437136       0.70300741       0.00000000 NULL      -0.00556400      -0.00177000       0.00560200
