60
Lattice="5.1620758256766 0.0 0.0 0.0 10.071520133675474 0.0 0.0 0.0 19.735773275256633" Properties=species:S:1:pos:R:3:initial_magmoms:R:1:castep_labels:S:1:forces:R:3 n_minim_iter=7 energy=-323.585338444744 stress="-4.678080408483023e-07 0.0 0.0 0.0 -6.432360561664157e-07 -0.0 0.0 -0.0 3.303894288491135e-06" free_energy=-323.585338444744 pbc="T T T"
P        1.80094127       4.92498966      13.49577093       0.00000000 NULL       0.00004400       0.00369600      -0.00622100
P        3.36113455       4.92498966       6.24000235       0.00000000 NULL      -0.00004400       0.00369600       0.00622100
P        0.78009664       9.96074973      13.49577093       0.00000000 NULL      -0.00004400       0.00369600      -0.00622100
P        4.38197918       9.96074973       6.24000235       0.00000000 NULL       0.00004400       0.00369600       0.00622100
P        1.55911873       0.64461670      16.29415161       0.00000000 NULL       0.00439800       0.00502500       0.00526700
P        3.60295710       0.64461670       3.44162167       0.00000000 NULL      -0.00439800       0.00502500      -0.00526700
P        1.02191918       5.68037676      16.29415161       0.00000000 NULL      -0.00440000       0.00502500       0.00526700
P        4.14015664       5.68037676       3.44162167       0.00000000 NULL       0.00440000       0.00502500      -0.00526700
P        4.07984775       7.62292844      11.04553115       0.00000000 NULL      -0.00049000       0.00039300      -0.00556900
P        1.08222808       7.62292844       8.69024212       0.00000000 NULL       0.00048900       0.00039400       0.00556900
P        3.66326599       2.58716837      11.04553115       0.00000000 NULL       0.00049000       0.00039400      -0.00556900
P        1.49880984       2.58716837       8.69024212       0.00000000 NULL      -0.00049000       0.00039400       0.00556900
P        0.77984022       8.25618845       6.16050640       0.00000000 NULL       0.00847000      -0.00331100       0.00357500
P        4.38223560       8.25618845      13.57526688       0.00000000 NULL      -0.00847000      -0.00331100      -0.00357500
P        1.80119769       3.22042838       6.16050640       0.00000000 NULL      -0.00847100      -0.00331200       0.00357500
P        3.36087813       3.22042838      13.57526688       0.00000000 NULL       0.00847100      -0.00331200      -0.00357500
P        2.85305718       0.90307530       1.21223769       0.00000000 NULL      -0.00442600       0.00323500       0.00086100
P        2.30901865       0.90307530      18.52353558       0.00000000 NULL       0.00442600       0.00323500      -0.00086100
P        4.89005656       5.93883536       1.21223769       0.00000000 NULL       0.00442800       0.00323400       0.00086200
P        0.27201926       5.93883536      18.52353558       0.00000000 NULL      -0.00442800       0.00323400      -0.00086200
P       -1.14136482       2.81478851       6.04964591       0.00000000 NULL       0.00148000      -0.00558900       0.00057000
P        6.30344065       2.81478851      13.68612737       0.00000000 NULL      -0.00148000      -0.00558900      -0.00057000
P        3.72240274       7.85054857       6.04964591       0.00000000 NULL      -0.00147900      -0.00558900       0.00057000
P        1.43967309       7.85054857      13.68612737       0.00000000 NULL       0.00147900      -0.00558900      -0.00057000
P        3.73648217       0.68169976      15.82209217       0.00000000 NULL      -0.00461500      -0.00063300       0.00056800
P        1.42559366       0.68169976       3.91368110       0.00000000 NULL       0.00461500      -0.00063300      -0.00056800
P        4.00663157       5.71745982      15.82209217       0.00000000 NULL       0.00461600      -0.00063300       0.00056900
P        1.15544425       5.71745982       3.91368110       0.00000000 NULL      -0.00461600      -0.00063300      -0.00056900
P        4.41592931       0.45716456      18.00664925       0.00000000 NULL      -0.00369100       0.00114400      -0.00181700
P        0.74614652       0.45716456       1.72912403       0.00000000 NULL       0.00369100       0.00114400       0.00181700
P        3.32718443       5.49292463      18.00664925       0.00000000 NULL       0.00369300       0.00114300      -0.00181700
P        1.83489139       5.49292463       1.72912403       0.00000000 NULL      -0.00369300       0.00114300       0.00181700
P       -0.59029064       8.21982630      18.15465014       0.00000000 NULL      -0.00224700       0.00295400      -0.00121200
P        5.75236646       8.21982630       1.58112313       0.00000000 NULL       0.00224700       0.00295400       0.00121200
P        3.17132855       3.18406623      18.15465014       0.00000000 NULL       0.00224900       0.00295400      -0.00121200
P        1.99074728       3.18406623       1.58112313       0.00000000 NULL      -0.00224900       0.00295400       0.00121200
P        5.07710956       2.69876066       1.09333294       0.00000000 NULL      -0.00041400       0.00184100       0.00010600
P        0.08496627       2.69876066      18.64244033       0.00000000 NULL       0.00041400       0.00184100      -0.00010600
P        2.66600418       7.73452072       1.09333294       0.00000000 NULL       0.00041600       0.00184100       0.00010600
P        2.49607164       7.73452072      18.64244033       0.00000000 NULL      -0.00041600       0.00184100      -0.00010600
P        3.98539157       9.91035135      10.95779868       0.00000000 NULL      -0.00265100      -0.00556400       0.00053600
P        1.17668425       9.91035135       8.77797459       0.00000000 NULL       0.00265100      -0.00556400      -0.00053500
P        3.75772217       4.87459128      10.95779868       0.00000000 NULL       0.00265200      -0.00556400       0.00053500
P        1.40435366       4.87459128       8.77797459       0.00000000 NULL      -0.00265200      -0.00556400      -0.00053500
P        1.63146534       7.87429431      15.93633342       0.00000000 NULL      -0.00046200      -0.00249700       0.00256900
P        3.53061049       7.87429431       3.79943986       0.00000000 NULL       0.00046200      -0.00249700      -0.00256900
P        6.11164840       2.83853424      15.93633342       0.00000000 NULL       0.00046000      -0.00249700       0.00256900
P       -0.94957258       2.83853424       3.79943986       0.00000000 NULL      -0.00046000      -0.00249700      -0.00256900
P        1.49404743       5.12543802      11.13410442       0.00000000 NULL       0.00100700      -0.00032200      -0.00121600
P        3.66802839       5.12543802       8.60166886       0.00000000 NULL      -0.00100700      -0.00032200       0.00121600
P        1.08699048      10.16119809      11.13410442       0.00000000 NULL      -0.00100800      -0.00032100      -0.00121600
P        4.07508535      10.16119809       8.60166886       0.00000000 NULL       0.00100700      -0.00032100       0.00121600
P        1.21304175       7.37524630      10.99524476       0.00000000 NULL       0.00534600      -0.00001700      -0.00339100
P        3.94903407       7.37524630       8.74052852       0.00000000 NULL      -0.00534600      -0.00001700       0.00339100
P        1.36799616       2.33948623      10.99524476       0.00000000 NULL      -0.00534700      -0.00001700      -0.00339100
P        3.79407967       2.33948623       8.74052852       0.00000000 NULL       0.00534700      -0.00001700       0.00339100
P        3.84166496       2.92021146      15.85952760       0.00000000 NULL       0.00637400      -0.00035500      -0.00109400
P        1.32041086       2.92021146       3.87624568       0.00000000 NULL      -0.00637400      -0.00035500       0.00109400
P        3.90144878       7.95597153      15.85952760       0.00000000 NULL      -0.00637300      -0.00035500      -0.00109400
P        1.26062705       7.95597153       3.87624568       0.00000000 NULL       0.00637300      -0.00035500       0.00109400
