64
Lattice="7.109203726929856 0.0 0.0 0.0 13.218552839069309 0.0 0.0 0.0 13.518221855210088" Properties=species:S:1:pos:R:3:initial_magmoms:R:1:castep_labels:S:1:forces:R:3 n_minim_iter=18 energy=-344.681390758431 stress="-4.977356114472848e-05 0.0 -0.0 0.0 3.377013716762379e-06 -0.0 -0.0 -0.0 -3.6359968199826175e-05" free_energy=-344.681390758431 pbc="T T T"
P        1.30100262       3.56830522       9.50529391       0.00000000 NULL       0.00056700       0.00085800       0.00204300
P        1.30100262       9.65024761       4.01292794       0.00000000 NULL       0.00056700      -0.00085800      -0.00204300
P        1.30100262      10.17758164      10.77203887       0.00000000 NULL       0.00056700       0.00085800      -0.00204300
P        1.30100262       3.04097119       2.74618298       0.00000000 NULL       0.00056700      -0.00085800       0.00204300
P        1.32014284      12.23006429      13.00176516       0.00000000 NULL      -0.00297000      -0.00154200      -0.00156700
P        1.32014284       0.98848854       0.51645669       0.00000000 NULL      -0.00297000       0.00154200       0.00156700
P        1.32014284       5.62078787       7.27556762       0.00000000 NULL      -0.00296900      -0.00154300       0.00156800
P        1.32014284       7.59776496       6.24265424       0.00000000 NULL      -0.00296900       0.00154300      -0.00156800
P        3.50408066       5.13121956       6.91151566       0.00000000 NULL      -0.00162300      -0.00371300       0.00284500
P        3.50408066       8.08733328       6.60670620       0.00000000 NULL      -0.00162300       0.00371300      -0.00284500
P        3.50408066      11.74049598      13.36581712       0.00000000 NULL      -0.00162300      -0.00371400      -0.00284400
P        3.50408066       1.47805686       0.15240473       0.00000000 NULL      -0.00162300       0.00371400       0.00284400
P        5.21098031       5.33059660      11.31434920       0.00000000 NULL      -0.00115600       0.00118300       0.00107500
P        5.21098031       7.88795624       2.20387265       0.00000000 NULL      -0.00115600      -0.00118300      -0.00107500
P        5.21098031      11.93987302       8.96298358       0.00000000 NULL      -0.00115600       0.00118400      -0.00107500
P        5.21098031       1.27867982       4.55523828       0.00000000 NULL      -0.00115600      -0.00118400       0.00107500
P       -0.08223096      -0.03522359       9.73761993       0.00000000 NULL      -0.00527000       0.00326500      -0.00503500
P       -0.08223096      13.25377643       3.78060192       0.00000000 NULL      -0.00527000      -0.00326500       0.00503500
P       -0.08223096       6.57405283      10.53971285       0.00000000 NULL      -0.00526900       0.00326400       0.00503500
P       -0.08223096       6.64450001       2.97850900       0.00000000 NULL      -0.00526900      -0.00326400      -0.00503500
P        1.77582083       8.49851043       9.39177884       0.00000000 NULL       0.00059900      -0.00069200      -0.00199300
P        1.77582083       4.72004241       4.12644302       0.00000000 NULL       0.00059900       0.00069100       0.00199300
P        1.77582083       1.88923401      10.88555394       0.00000000 NULL       0.00059900      -0.00069200       0.00199400
P        1.77582083      11.32931883       2.63266791       0.00000000 NULL       0.00059900       0.00069200      -0.00199300
P        0.25033361      11.01350487       1.03929644       0.00000000 NULL       0.00425700       0.00076900       0.00106600
P        0.25033361       2.20504796      12.47892542       0.00000000 NULL       0.00425700      -0.00076900      -0.00106600
P        0.25033361       4.40422845       5.71981449       0.00000000 NULL       0.00425600       0.00076900      -0.00106700
P        0.25033361       8.81432438       7.79840737       0.00000000 NULL       0.00425600      -0.00076900       0.00106700
P        4.51913837       0.48833088       7.74987697       0.00000000 NULL       0.00528000       0.00103000       0.00023400
P        4.51913837      12.73022196       5.76834488       0.00000000 NULL       0.00528000      -0.00103000      -0.00023400
P        4.51913837       7.09760730      12.52745581       0.00000000 NULL       0.00527900       0.00103000      -0.00023300
P        4.51913837       6.12094554       0.99076605       0.00000000 NULL       0.00527900      -0.00103000       0.00023300
P        6.53437795       1.48503668       7.99860348       0.00000000 NULL       0.00180900       0.00790400       0.00299600
P        6.53437795      11.73351616       5.51961837       0.00000000 NULL       0.00180900      -0.00790400      -0.00299600
P        6.53437795       8.09431310      12.27872930       0.00000000 NULL       0.00180900       0.00790500      -0.00299600
P        6.53437795       5.12423974       1.23949256       0.00000000 NULL       0.00180900      -0.00790500       0.00299500
P        4.72445710       1.87283642      10.62898269       0.00000000 NULL       0.00289600       0.00470200      -0.00126700
P        4.72445710      11.34571642       2.88923917       0.00000000 NULL       0.00289600      -0.00470200       0.00126700
P        4.72445710       8.48211284       9.64835010       0.00000000 NULL       0.00289600       0.00470300       0.00126700
P        4.72445710       4.73644000       3.86987176       0.00000000 NULL       0.00289600      -0.00470300      -0.00126700
P        5.91481463      10.01021107       4.22311916       0.00000000 NULL      -0.00196000       0.00230300       0.00022600
P        5.91481463       3.20834177       9.29510270       0.00000000 NULL      -0.00196000      -0.00230300      -0.00022600
P        5.91481463       3.40093465       2.53599177       0.00000000 NULL      -0.00196000       0.00230300      -0.00022600
P        5.91481463       9.81761819      10.98223009       0.00000000 NULL      -0.00196000      -0.00230300       0.00022600
P        3.42443330      10.25304848       1.47889091       0.00000000 NULL       0.00110000      -0.00185100      -0.00140100
P        3.42443330       2.96550436      12.03933095       0.00000000 NULL       0.00110000       0.00185100       0.00140100
P        3.42443330       3.64377206       5.28022002       0.00000000 NULL       0.00110000      -0.00185200       0.00140100
P        3.42443330       9.57478078       8.23800184       0.00000000 NULL       0.00110000       0.00185200      -0.00140100
P        3.58600512      10.42154468      11.59250564       0.00000000 NULL      -0.00294200       0.00180500       0.00651300
P        3.58600512       2.79700816       1.92571622       0.00000000 NULL      -0.00294200      -0.00180500      -0.00651300
P        3.58600512       3.81226826       8.68482715       0.00000000 NULL      -0.00294200       0.00180500      -0.00651300
P        3.58600512       9.40628458       4.83339471       0.00000000 NULL      -0.00294200      -0.00180500       0.00651300
P        1.64626997       5.17069915      11.04402131       0.00000000 NULL       0.00067000       0.00106600       0.00031500
P        1.64626997       8.04785369       2.47420054       0.00000000 NULL       0.00067000      -0.00106700      -0.00031500
P        1.64626997      -1.43857727       9.23331147       0.00000000 NULL       0.00067000       0.00106700      -0.00031500
P        1.64626997      14.65713011       4.28491039       0.00000000 NULL       0.00067000      -0.00106700       0.00031500
P        3.53975220       0.88261235       3.11494316       0.00000000 NULL       0.00317000      -0.00512900       0.00125700
P        3.53975220      12.33594049      10.40327870       0.00000000 NULL       0.00317000       0.00512900      -0.00125700
P        3.53975220       7.49188877       3.64416777       0.00000000 NULL       0.00317000      -0.00512900      -0.00125600
P        3.53975220       5.72666407       9.87405409       0.00000000 NULL       0.00317000       0.00512900       0.00125600
P        6.06295698      12.67622393       1.77255529       0.00000000 NULL      -0.00442700      -0.00132500      -0.00561800
P        6.06295698       0.54232891      11.74566657       0.00000000 NULL      -0.00442700       0.00132500       0.00561800
P        6.06295698       6.06694751       4.98655564       0.00000000 NULL      -0.00442700      -0.00132500       0.00561800
P        6.06295698       7.15160533       8.53166622       0.00000000 NULL      -0.00442700       0.00132500      -0.00561800
