64
Lattice="10.788980603316139 0.0 0.0 0.0 10.282111297110806 0.0 0.0 0.0 13.600773859445193" Properties=species:S:1:pos:R:3:initial_magmoms:R:1:castep_labels:S:1:forces:R:3 n_minim_iter=13 energy=-342.024431906469 stress="-5.8789163326742925e-06 0.0 -0.0 0.0 5.368570720931428e-07 -0.0 -0.0 -0.0 1.424328207318721e-05" free_energy=-342.024431906469 pbc="T T T"
P        6.36102684       3.94967271       4.43240193       0.00000000 NULL      -0.00285500       0.00377100      -0.00189600
P        4.42795376       3.94967271       9.16837193       0.00000000 NULL       0.00285500       0.00377100       0.00189600
P        6.36102684       6.33243858       9.16837193       0.00000000 NULL      -0.00285500      -0.00377100       0.00189600
P        4.42795376       6.33243858       4.43240193       0.00000000 NULL       0.00285500      -0.00377100      -0.00189600
P        0.88306911       2.47492832       2.27593902       0.00000000 NULL      -0.00071700      -0.00041000       0.00234500
P        9.90591149       2.47492832      11.32483484       0.00000000 NULL       0.00071700      -0.00041000      -0.00234500
P        0.88306911       7.80718297      11.32483484       0.00000000 NULL      -0.00071700       0.00041100      -0.00234500
P        9.90591149       7.80718297       2.27593902       0.00000000 NULL       0.00071700       0.00041000       0.00234500
P        4.26153746       9.05132682       1.92740310       0.00000000 NULL       0.00320800      -0.00262800       0.00086900
P        6.52744315       9.05132682      11.67337076       0.00000000 NULL      -0.00320800      -0.00262800      -0.00086900
P        4.26153746       1.23078447      11.67337076       0.00000000 NULL       0.00320800       0.00262800      -0.00086900
P        6.52744315       1.23078447       1.92740310       0.00000000 NULL      -0.00320800       0.00262800       0.00086900
P        4.28705215      10.26465092       8.30392586       0.00000000 NULL       0.00160000       0.00190300      -0.00002600
P        6.50192846      10.26465092       5.29684800       0.00000000 NULL      -0.00160000       0.00190300       0.00002600
P        4.28705215       0.01746037       5.29684800       0.00000000 NULL       0.00160000      -0.00190200       0.00002600
P        6.50192846       0.01746037       8.30392586       0.00000000 NULL      -0.00160000      -0.00190200      -0.00002600
P        4.26609301       4.00677736       6.92692873       0.00000000 NULL       0.00293600      -0.00084500      -0.00164000
P        6.52288759       4.00677736       6.67384513       0.00000000 NULL      -0.00293600      -0.00084500       0.00164000
P        4.26609301       6.27533393       6.67384513       0.00000000 NULL       0.00293600       0.00084500       0.00164000
P        6.52288759       6.27533393       6.92692873       0.00000000 NULL      -0.00293600       0.00084500      -0.00164000
P        3.82510640       1.74809372       4.04106509       0.00000000 NULL      -0.00129100       0.00062500      -0.00248100
P        6.96387420       1.74809372       9.55970877       0.00000000 NULL       0.00129100       0.00062500       0.00248100
P        3.82510640       8.53401758       9.55970877       0.00000000 NULL      -0.00129100      -0.00062500       0.00248100
P        6.96387420       8.53401758       4.04106509       0.00000000 NULL       0.00129100      -0.00062500      -0.00248100
P        9.13972175       8.51752629       4.26035682       0.00000000 NULL       0.00069100      -0.00045300       0.00127400
P        1.64925886       8.51752629       9.34041704       0.00000000 NULL      -0.00069100      -0.00045300      -0.00127400
P        9.13972175       1.76458501       9.34041704       0.00000000 NULL       0.00069100       0.00045300      -0.00127400
P        1.64925886       1.76458501       4.26035682       0.00000000 NULL      -0.00069100       0.00045300       0.00127400
P        8.72541534       9.19929521       1.04811375       0.00000000 NULL       0.00005100       0.00248000       0.00086400
P        2.06356526       9.19929521      12.55266011       0.00000000 NULL      -0.00005100       0.00248000      -0.00086400
P        8.72541534       1.08281608      12.55266011       0.00000000 NULL       0.00005100      -0.00248000      -0.00086400
P        2.06356526       1.08281608       1.04811375       0.00000000 NULL      -0.00005100      -0.00248000       0.00086400
P        6.99169716       8.53839634       9.59695120       0.00000000 NULL      -0.00173000       0.00092800       0.00068300
P        3.79728344       8.53839634       4.00382266       0.00000000 NULL       0.00173000       0.00092800      -0.00068400
P        6.99169716       1.74371495       4.00382266       0.00000000 NULL      -0.00173000      -0.00092800      -0.00068300
P        3.79728344       1.74371495       9.59695120       0.00000000 NULL       0.00173000      -0.00092800       0.00068400
P       10.30457811       4.12352137       8.31133227       0.00000000 NULL      -0.00096400      -0.00259800       0.00020900
P        0.48440249       4.12352137       5.28944159       0.00000000 NULL       0.00096400      -0.00259800      -0.00020900
P       10.30457811       6.15858992       5.28944159       0.00000000 NULL      -0.00096400       0.00259800      -0.00020900
P        0.48440249       6.15858992       8.31133227       0.00000000 NULL       0.00096400       0.00259800       0.00020900
P        1.07458120      -0.38886992       4.24929646       0.00000000 NULL      -0.00377600       0.00083200       0.00442700
P        9.71439940      -0.38886992       9.35147740       0.00000000 NULL       0.00377600       0.00083200      -0.00442700
P        1.07458120      10.67098121       9.35147740       0.00000000 NULL      -0.00377600      -0.00083200      -0.00442700
P        9.71439940      10.67098121       4.24929646       0.00000000 NULL       0.00377600      -0.00083200       0.00442700
P        1.46687419       6.83745669       6.04854867       0.00000000 NULL      -0.00554300       0.00203500       0.00532300
P        9.32210641       6.83745669       7.55222519       0.00000000 NULL       0.00554300       0.00203500      -0.00532300
P        1.46687419       3.44465460       7.55222519       0.00000000 NULL      -0.00554300      -0.00203500      -0.00532300
P        9.32210641       3.44465460       6.04854867       0.00000000 NULL       0.00554300      -0.00203500       0.00532300
P        2.32923262       6.78929981       3.89365820       0.00000000 NULL      -0.00219800      -0.00034400      -0.00074400
P        8.45974799       6.78929981       9.70711566       0.00000000 NULL       0.00219800      -0.00034400       0.00074400
P        2.32923262       3.49281149       9.70711566       0.00000000 NULL      -0.00219800       0.00034400       0.00074400
P        8.45974799       3.49281149       3.89365820       0.00000000 NULL       0.00219800       0.00034400      -0.00074400
P        4.12436509       0.98146110       1.97786708       0.00000000 NULL       0.00045500      -0.00434500       0.00298600
P        6.66461552       0.98146110      11.62290678       0.00000000 NULL      -0.00045500      -0.00434500      -0.00298600
P        4.12436509       9.30065020      11.62290678       0.00000000 NULL       0.00045500       0.00434500      -0.00298600
P        6.66461552       9.30065020       1.97786708       0.00000000 NULL      -0.00045500       0.00434500       0.00298600
P        9.69286167       9.00871476       7.08817689       0.00000000 NULL       0.00266900       0.00067200      -0.00165600
P        1.09611893       9.00871476       6.51259697       0.00000000 NULL      -0.00266900       0.00067200       0.00165600
P        9.69286167       1.27339654       6.51259697       0.00000000 NULL       0.00266900      -0.00067200       0.00165600
P        1.09611893       1.27339654       7.08817689       0.00000000 NULL      -0.00266900      -0.00067200      -0.00165600
P        0.87441178       0.74634649      11.63767184       0.00000000 NULL       0.00296700       0.00020300      -0.00059200
P        9.91456882       0.74634649       1.96310202       0.00000000 NULL      -0.00296700       0.00020300       0.00059200
P        0.87441178       9.53576480       1.96310202       0.00000000 NULL       0.00296700      -0.00020300       0.00059200
P        9.91456882       9.53576480      11.63767184       0.00000000 NULL      -0.00296700      -0.00020300      -0.00059200
