12
Lattice="5.6142938335406205 3.021977408187057e-16 0.0 -2.8071469167703107 4.862121084156501 0.0 0.0 0.0 7.380646295441838" Properties=species:S:1:pos:R:3:initial_magmoms:R:1:castep_labels:S:1:forces:R:3 n_minim_iter=1 energy=-65.143947534425 stress="8.631460600012131e-05 -0.0 0.0 -0.0 8.626497137907467e-05 0.0 0.0 0.0 -7.881977822207743e-05" free_energy=-65.143947534425 pbc="T T T"
P        1.37101964       0.10285912      -0.10926064       0.00000000 NULL      -0.00551000      -0.00078100       0.00298600
P        4.83913983       1.13590829       2.35095479       0.00000000 NULL       0.00343200      -0.00438000       0.00299000
P        2.21043291       3.62286390       4.81117022       0.00000000 NULL       0.00207800       0.00516200       0.00298900
P        3.01452628       1.72463285       7.25024388       0.00000000 NULL      -0.00517000      -0.00591800      -0.00070200
P        2.61288927       1.74833992       2.32981301       0.00000000 NULL       0.00771100      -0.00151700      -0.00070000
P        2.79317684       1.38865854       4.79002845       0.00000000 NULL      -0.00253900       0.00743600      -0.00070100
P        2.03199292       3.72588627       7.02191029       0.00000000 NULL       0.00343100       0.00438100      -0.00298900
P        1.37101964      -0.10318564       2.10147942       0.00000000 NULL      -0.00551000       0.00078000      -0.00298600
P        5.01757983       1.23893067       4.56169486       0.00000000 NULL       0.00207700      -0.00516200      -0.00298900
P       -0.01397008       3.47313603       4.58283663       0.00000000 NULL      -0.00254000      -0.00743600       0.00070100
P       -0.19425765       3.11345464       7.04305207       0.00000000 NULL       0.00771000       0.00151800       0.00070000
P        0.20737936       3.13716172       2.12262120       0.00000000 NULL      -0.00517100       0.00591700       0.00070200
