56
Lattice="4.965199567949244 0.0 0.0 0.0 11.807303881273889 0.0 0.0 0.0 26.859789469331716" Properties=species:S:1:pos:R:3:initial_magmoms:R:1:castep_labels:S:1:forces:R:3 n_minim_iter=17 energy=-298.956883736456 stress="-5.194732816786874e-06 0.0 -0.0 0.0 -1.0814951084337465e-05 -0.0 -0.0 -0.0 -7.245953721214943e-06" free_energy=-298.956883736456 pbc="T T T"
P        4.24947454       0.01559687       9.68492995       0.00000000 NULL       0.00029800      -0.00398200      -0.00176800
P        4.24947454      11.79170701      17.17485952       0.00000000 NULL       0.00029800       0.00398200       0.00176800
P        1.76687476      11.79170701       9.68492995       0.00000000 NULL       0.00029800       0.00398200      -0.00176900
P        1.76687476       0.01559687      17.17485952       0.00000000 NULL       0.00029800      -0.00398200       0.00176900
P        1.02198916       8.62217825      10.95778443       0.00000000 NULL      -0.00026700       0.00357300       0.00399300
P        1.02198916       3.18512563      15.90200504       0.00000000 NULL      -0.00026700      -0.00357300      -0.00399300
P        3.50458895       3.18512563      10.95778443       0.00000000 NULL      -0.00026400      -0.00357200       0.00399300
P        3.50458895       8.62217825      15.90200504       0.00000000 NULL      -0.00026400       0.00357200      -0.00399300
P        4.22173517       0.18770603      19.42315092       0.00000000 NULL       0.00332300       0.00346400       0.00013300
P        4.22173517      11.61959785       7.43663854       0.00000000 NULL       0.00332300      -0.00346300      -0.00013300
P        1.73913538      11.61959785      19.42315092       0.00000000 NULL       0.00332400      -0.00346400       0.00013300
P        1.73913538       0.18770603       7.43663854       0.00000000 NULL       0.00332400       0.00346400      -0.00013300
P       -1.18880403      12.07989943      12.34466933       0.00000000 NULL      -0.00182400      -0.00132000       0.00210100
P       -1.18880403      -0.27259555      14.51512014       0.00000000 NULL      -0.00182400       0.00132000      -0.00210200
P        1.29379575      -0.27259555      12.34466933       0.00000000 NULL      -0.00182400       0.00132000       0.00210100
P        1.29379575      12.07989943      14.51512014       0.00000000 NULL      -0.00182400      -0.00132000      -0.00210100
P        4.32426490       4.24151820      21.60273013       0.00000000 NULL       0.00299900       0.00071300       0.00335800
P        4.32426490       7.56578568       5.25705934       0.00000000 NULL       0.00299900      -0.00071300      -0.00335800
P        1.84166511       7.56578568      21.60273013       0.00000000 NULL       0.00299700      -0.00071300       0.00335800
P        1.84166511       4.24151820       5.25705934       0.00000000 NULL       0.00299700       0.00071300      -0.00335800
P        2.96769895       4.23648017      16.40083044       0.00000000 NULL       0.00481500      -0.00051200      -0.00103800
P        2.96769895       7.57082371      10.45895903       0.00000000 NULL       0.00481500       0.00051200       0.00103800
P        0.48509916       7.57082371      16.40083044       0.00000000 NULL       0.00481200       0.00051300      -0.00103700
P        0.48509916       4.23648017      10.45895903       0.00000000 NULL       0.00481200      -0.00051300       0.00103700
P        4.53639443       7.50273742      21.37483990       0.00000000 NULL       0.00041000       0.00130900       0.00421300
P        4.53639443       4.30456646       5.48494957       0.00000000 NULL       0.00041000      -0.00130900      -0.00421300
P        2.05379464       4.30456646      21.37483990       0.00000000 NULL       0.00040800      -0.00130900       0.00421200
P        2.05379464       7.50273742       5.48494957       0.00000000 NULL       0.00040800       0.00130900      -0.00421300
P        1.96837446       9.08955105       7.34584454       0.00000000 NULL      -0.00475700       0.00476600      -0.00457900
P        1.96837446       2.71775284      19.51394493       0.00000000 NULL      -0.00475700      -0.00476600       0.00457900
P        4.45097424       2.71775284       7.34584454       0.00000000 NULL      -0.00475500      -0.00476600      -0.00457900
P        4.45097424       9.08955105      19.51394493       0.00000000 NULL      -0.00475500       0.00476600       0.00457900
P        4.17788930       9.36316797       7.64818806       0.00000000 NULL      -0.00120500       0.00028600      -0.00027400
P        4.17788930       2.44413592      19.21160141       0.00000000 NULL      -0.00120500      -0.00028600       0.00027400
P        1.69528952       2.44413592       7.64818806       0.00000000 NULL      -0.00120700      -0.00028600      -0.00027400
P        1.69528952       9.36316797      19.21160141       0.00000000 NULL      -0.00120700       0.00028600       0.00027400
P        4.09150112       7.39940092      18.13109232       0.00000000 NULL      -0.00528000      -0.00033300       0.00126400
P        4.09150112       4.40790296       8.72869715       0.00000000 NULL      -0.00528000       0.00033300      -0.00126400
P        1.60890134       4.40790296      18.13109232       0.00000000 NULL      -0.00528200       0.00033400       0.00126600
P        1.60890134       7.39940092       8.72869715       0.00000000 NULL      -0.00528200      -0.00033300      -0.00126700
P        1.64070571       2.32040437       9.92278372       0.00000000 NULL      -0.00260700       0.00146100      -0.00032700
P        1.64070571       9.48689951      16.93700575       0.00000000 NULL      -0.00260700      -0.00146100       0.00032700
P        4.12330549       9.48689951       9.92278372       0.00000000 NULL      -0.00260500      -0.00146100      -0.00032700
P        4.12330549       2.32040437      16.93700575       0.00000000 NULL      -0.00260500       0.00146100       0.00032700
P        3.70946156       9.40866894      13.85176260       0.00000000 NULL       0.00178100       0.00215100       0.00061400
P        3.70946156       2.39863494      13.00802687       0.00000000 NULL       0.00178100      -0.00215100      -0.00061400
P        1.22686177       2.39863494      13.85176260       0.00000000 NULL       0.00178200      -0.00215100       0.00061400
P        1.22686177       9.40866894      13.00802687       0.00000000 NULL       0.00178200       0.00215100      -0.00061400
P        2.01428600       5.81311928       6.98808904       0.00000000 NULL       0.00042600      -0.00350000       0.00286600
P        2.01428600       5.99418461      19.87170043       0.00000000 NULL       0.00042600       0.00350000      -0.00286600
P       -0.46831378       5.99418461       6.98808904       0.00000000 NULL       0.00042600       0.00349900       0.00286700
P       -0.46831378       5.81311928      19.87170043       0.00000000 NULL       0.00042600      -0.00349900      -0.00286700
P        1.91246743       5.87982218       3.74939883       0.00000000 NULL       0.00188800      -0.00225800       0.00708400
P        1.91246743       5.92748170      23.11039064       0.00000000 NULL       0.00188800       0.00225800      -0.00708400
P       -0.57013235       5.92748170       3.74939883       0.00000000 NULL       0.00188700       0.00225800       0.00708400
P       -0.57013235       5.87982218      23.11039064       0.00000000 NULL       0.00188700      -0.00225800      -0.00708400
