18
Lattice="5.829915739166444 6.542688568833294e-14 0.0 -2.914957869583276 5.04885513204084 0.0 0.0 0.0 11.250987249131196" Properties=species:S:1:pos:R:3:initial_magmoms:R:1:castep_labels:S:1:forces:R:3 n_minim_iter=7 energy=-96.853605322038 stress="3.804737743952612e-06 0.0 -0.0 0.0 3.7443450813501895e-06 0.0 -0.0 0.0 1.0387537967616655e-05" free_energy=-96.853605322038 pbc="T T T"
P       -3.82456181       3.24019057      11.17621575       0.00000000 NULL      -0.00487300       0.00186700       0.00264600
P        2.02115114       0.11659267       3.67555758       0.00000000 NULL       0.00082000      -0.00515400       0.00264800
P        1.80340979       6.74092753       7.42588667       0.00000000 NULL       0.00405600       0.00328800       0.00264900
P        3.84070648      -0.02233242       0.87490751       0.00000000 NULL       0.00349700      -0.00509900       0.00343600
P        3.92890265       3.33731609       4.62523659       0.00000000 NULL       0.00266700       0.00557800       0.00343500
P        0.97526361       1.73387196       8.37556568       0.00000000 NULL      -0.00616600      -0.00047900       0.00343500
P        1.77009508       4.62302927       6.72408897       0.00000000 NULL       0.00034200      -0.00454500      -0.00117200
P        0.94120711      -0.77856682      -0.77656919       0.00000000 NULL       0.00376300       0.00256600      -0.00117400
P        6.03357054       1.20439319       2.97375989       0.00000000 NULL      -0.00410500       0.00197800      -0.00117200
P        1.96135604       1.15628123       5.71980464       0.00000000 NULL       0.00090900       0.00557200      -0.00053400
P        3.84786851       1.12044405       9.47013372       0.00000000 NULL      -0.00527700      -0.00199800      -0.00053300
P        2.93564818       2.77213036       1.96947556       0.00000000 NULL       0.00437100      -0.00357200      -0.00053300
P        3.99261545       4.32498920       6.64088116       0.00000000 NULL       0.00070200      -0.00508600      -0.00244000
P        0.08805721       1.29521231      10.39121025       0.00000000 NULL       0.00405200       0.00315300      -0.00244200
P        4.66420008      -0.57134587       2.89055208       0.00000000 NULL      -0.00475600       0.00193300      -0.00244000
P        1.16241978       3.95194374       8.74365421       0.00000000 NULL      -0.00453900      -0.00207600      -0.00193700
P        1.82622189      -0.96928631       1.24299605       0.00000000 NULL       0.00406700      -0.00289400      -0.00193500
P        5.75623107       2.06619821       4.99332513       0.00000000 NULL       0.00047200       0.00496900      -0.00193700
