12
Lattice="3.0830634997917583 0.0 0.0 0.0 8.27228403683601 0.0 0.0 0.0 9.402552494498275" Properties=species:S:1:pos:R:3:initial_magmoms:R:1:castep_labels:S:1:forces:R:3 n_minim_iter=5 energy=-62.315233326616 stress="-1.359452447266056e-05 -0.0 -0.0 -0.0 -3.532074303172851e-05 0.0 -0.0 0.0 2.4061474296702894e-05" free_energy=-62.315233326616 pbc="T T T"
P        1.15782066       2.06086590       5.62026368       0.00000000 NULL       0.00000100       0.00196000      -0.00570600
P        1.15782066       6.21141814       3.78228882       0.00000000 NULL       0.00000100      -0.00196000       0.00570600
P        2.69935241       6.19700792       8.48356507       0.00000000 NULL      -0.00000100       0.00196000       0.00570600
P        2.69935241       2.07527612       0.91898743       0.00000000 NULL      -0.00000100      -0.00196000      -0.00570600
P        2.69935241       0.46250323       6.24376703       0.00000000 NULL      -0.00000200       0.00786400       0.00385500
P        2.69935241       7.80978081       3.15878547       0.00000000 NULL      -0.00000200      -0.00786400      -0.00385500
P        1.15782066       4.59864525       7.86006171       0.00000000 NULL       0.00000200       0.00786500      -0.00385500
P        1.15782066       3.67363879       1.54249078       0.00000000 NULL       0.00000200      -0.00786500       0.00385500
P        2.69935241       5.53641141       6.41099270       0.00000000 NULL      -0.00000100       0.00394300       0.00691900
P        2.69935241       2.73587262       2.99155979       0.00000000 NULL      -0.00000100      -0.00394300      -0.00691900
P        1.15782066       1.40026939       7.69283604       0.00000000 NULL       0.00000100       0.00394300      -0.00691900
P        1.15782066       6.87201464       1.70971645       0.00000000 NULL       0.00000100      -0.00394300       0.00692000
