12
Lattice="3.186573199422663 0.0 0.0 0.0 9.350896395694239 0.0 0.0 0.0 9.266742797369885" Properties=species:S:1:pos:R:3:initial_magmoms:R:1:castep_labels:S:1:forces:R:3 n_minim_iter=1 energy=-62.471092755853 stress="0.0005215771886053824 0.0 0.0 0.0 -0.00013160752002443823 0.0 0.0 0.0 0.0004126406392841082" free_energy=-62.471092755853 pbc="T T T"
P        1.19720933       1.80834345       5.34957517       0.00000000 NULL       0.00000000      -0.05214900       0.01637900
P        1.19720933       7.54255294       3.91716763       0.00000000 NULL       0.00000000       0.05214900      -0.01637900
P        2.79049593       6.48379165       8.55053903       0.00000000 NULL      -0.00000000      -0.05214900      -0.01637800
P        2.79049593       2.86710474       0.71620377       0.00000000 NULL      -0.00000000       0.05214900       0.01637800
P        2.79049593       0.45961872       6.40720257       0.00000000 NULL      -0.00000000       0.00691300      -0.05562000
P        2.79049593       8.89127767       2.85954023       0.00000000 NULL      -0.00000000      -0.00691300       0.05562000
P        1.19720933       5.13506692       7.49291163       0.00000000 NULL       0.00000000       0.00691300       0.05562000
P        1.19720933       4.21582948       1.77383117       0.00000000 NULL       0.00000000      -0.00691300      -0.05562000
P        2.79049593       6.40959286       6.37704813       0.00000000 NULL      -0.00000000       0.01796800      -0.00008400
P        2.79049593       2.94130354       2.88969467       0.00000000 NULL      -0.00000000      -0.01796800       0.00008400
P        1.19720933       1.73414466       7.52306607       0.00000000 NULL       0.00000000       0.01796900       0.00008400
P        1.19720933       7.61675174       1.74367673       0.00000000 NULL       0.00000000      -0.01796900      -0.00008400
12
Lattice="3.1841219743306963 0.0 0.0 0.0 9.35271226217376 0.0 0.0 0.0 9.261102854446214" Properties=species:S:1:pos:R:3:initial_magmoms:R:1:castep_labels:S:1:forces:R:3 n_minim_iter=2 energy=-62.471249644947 stress="-0.0003241873914076559 -0.0 0.0 -0.0 -0.00031283847590484896 0.0 0.0 0.0 -0.0004676623391540036" free_energy=-62.471249644947 pbc="T T T"
P        1.19628839       1.80841592       5.34640676       0.00000000 NULL      -0.00000000      -0.04440500      -0.00452000
P        1.19628839       7.54429634       3.91469609       0.00000000 NULL      -0.00000000       0.04440500       0.00452000
P        2.78834938       6.48477205       8.54524752       0.00000000 NULL       0.00000000      -0.04440500       0.00452000
P        2.78834938       2.86794021       0.71585533       0.00000000 NULL       0.00000000       0.04440500      -0.00452000
P        2.78834938       0.45974492       6.40300599       0.00000000 NULL       0.00000000      -0.00580000      -0.05401500
P        2.78834938       8.89296734       2.85809686       0.00000000 NULL       0.00000000       0.00580000       0.05401500
P        1.19628839       5.13610105       7.48864829       0.00000000 NULL      -0.00000000      -0.00580000       0.05401500
P        1.19628839       4.21661121       1.77245457       0.00000000 NULL      -0.00000000       0.00580000      -0.05401500
P        2.78834938       6.41093357       6.37316647       0.00000000 NULL       0.00000000       0.02009200      -0.02003300
P        2.78834938       2.94177869       2.88793639       0.00000000 NULL       0.00000000      -0.02009200       0.02003300
P        1.19628839       1.73457744       7.51848781       0.00000000 NULL      -0.00000000       0.02009200       0.02003300
P        1.19628839       7.61813482       1.74261504       0.00000000 NULL      -0.00000000      -0.02009200      -0.02003300
12
Lattice="3.1814166850263152 0.0 0.0 0.0 9.37567879809036 0.0 0.0 0.0 9.265968426711694" Properties=species:S:1:pos:R:3:initial_magmoms:R:1:castep_labels:S:1:forces:R:3 n_minim_iter=3 energy=-62.471587683394 stress="-0.00031112422352220343 -0.0 -0.0 -0.0 0.0012753596644882138 -0.0 -0.0 -0.0 0.0002484579652200222" free_energy=-62.471587683394 pbc="T T T"
P        1.19527201       1.81096487       5.34942849       0.00000000 NULL      -0.00000000      -0.02747200       0.00851100
P        1.19527201       7.56471393       3.91653994       0.00000000 NULL      -0.00000000       0.02747200      -0.00851100
P        2.78598035       6.49880427       8.54952415       0.00000000 NULL       0.00000000      -0.02747200      -0.00851100
P        2.78598035       2.87687453       0.71644427       0.00000000 NULL       0.00000000       0.02747200       0.00851100
P        2.78598035       0.46088366       6.40422181       0.00000000 NULL       0.00000100       0.00628000      -0.03822100
P        2.78598035       8.91479514       2.86174662       0.00000000 NULL       0.00000100      -0.00628000       0.03822100
P        1.19527201       5.14872306       7.49473083       0.00000000 NULL      -0.00000100       0.00628000       0.03822100
P        1.19527201       4.22695574       1.77123760       0.00000000 NULL      -0.00000100      -0.00628000      -0.03822100
P        2.78598035       6.42742693       6.37610156       0.00000000 NULL       0.00000100      -0.00748100       0.00127600
P        2.78598035       2.94825187       2.88986687       0.00000000 NULL       0.00000100       0.00748100      -0.00127600
P        1.19527201       1.73958753       7.52285108       0.00000000 NULL      -0.00000100      -0.00748200      -0.00127700
P        1.19527201       7.63609127       1.74311734       0.00000000 NULL      -0.00000100       0.00748200       0.00127700
12
Lattice="3.183305954771231 0.0 0.0 0.0 9.358807351298049 0.0 0.0 0.0 9.26883348809184" Properties=species:S:1:pos:R:3:initial_magmoms:R:1:castep_labels:S:1:forces:R:3 n_minim_iter=4 energy=-62.472498442976 stress="-0.00030629770612820286 -0.0 -0.0 -0.0 0.000325708390744509 -0.0 -0.0 -0.0 0.00044583010878982093" free_energy=-62.472498442976 pbc="T T T"
P        1.19598181       1.80384432       5.35156549       0.00000000 NULL      -0.00000000       0.00414200      -0.00666700
P        1.19598181       7.55496303       3.91726800       0.00000000 NULL      -0.00000000      -0.00414200       0.00666700
P        2.78763479       6.48324799       8.55168474       0.00000000 NULL       0.00000000       0.00414100       0.00666700
P        2.78763479       2.87555936       0.71714874       0.00000000 NULL       0.00000000      -0.00414100      -0.00666700
P        2.78763479       0.46015348       6.40166701       0.00000000 NULL       0.00000000      -0.01327300      -0.00469900
P        2.78763479       8.89865387       2.86716648       0.00000000 NULL       0.00000000       0.01327300       0.00469900
P        1.19598181       5.13955715       7.50158322       0.00000000 NULL      -0.00000000      -0.01327300       0.00469900
P        1.19598181       4.21925020       1.76725027       0.00000000 NULL      -0.00000000       0.01327300      -0.00469900
P        2.78763479       6.41707511       6.37730555       0.00000000 NULL       0.00000000      -0.01295600       0.01863500
P        2.78763479       2.94173224       2.89152794       0.00000000 NULL       0.00000000       0.01295600      -0.01863500
P        1.19598181       1.73767144       7.52594469       0.00000000 NULL      -0.00000000      -0.01295600      -0.01863600
P        1.19598181       7.62113591       1.74288880       0.00000000 NULL      -0.00000000       0.01295600       0.01863600
12
Lattice="3.1849069917757764 0.0 0.0 0.0 9.359898319672121 0.0 0.0 0.0 9.264303470825935" Properties=species:S:1:pos:R:3:initial_magmoms:R:1:castep_labels:S:1:forces:R:3 n_minim_iter=5 energy=-62.472546019754 stress="5.243097570965306e-05 -0.0 -0.0 -0.0 0.00048784705506640583 -0.0 -0.0 -0.0 8.599693875029421e-05" free_energy=-62.472546019754 pbc="T T T"
P        1.19658333       1.80383617       5.34891667       0.00000000 NULL      -0.00000000       0.00385700      -0.01601400
P        1.19658333       7.55606215       3.91538681       0.00000000 NULL      -0.00000000      -0.00385700       0.01601400
P        2.78903682       6.48378533       8.54753854       0.00000000 NULL       0.00000000       0.00385600       0.01601400
P        2.78903682       2.87611299       0.71676493       0.00000000 NULL       0.00000000      -0.00385600      -0.01601400
P        2.78903682       0.46010930       6.39823059       0.00000000 NULL       0.00000000      -0.00814300      -0.00248300
P        2.78903682       8.89978902       2.86607289       0.00000000 NULL       0.00000000       0.00814300       0.00248300
P        1.19658333       5.14005846       7.49822462       0.00000000 NULL      -0.00000000      -0.00814300       0.00248300
P        1.19658333       4.21983986       1.76607885       0.00000000 NULL      -0.00000000       0.00814300      -0.00248300
P        2.78903682       6.41785661       6.37423357       0.00000000 NULL       0.00000000      -0.01837200       0.01028000
P        2.78903682       2.94204171       2.89006990       0.00000000 NULL       0.00000000       0.01837200      -0.01028000
P        1.19658333       1.73790745       7.52222163       0.00000000 NULL      -0.00000000      -0.01837200      -0.01028100
P        1.19658333       7.62199087       1.74208184       0.00000000 NULL      -0.00000000       0.01837200       0.01028100
12
Lattice="3.1836046911970293 0.0 0.0 0.0 9.349417445499403 0.0 0.0 0.0 9.245106049235144" Properties=species:S:1:pos:R:3:initial_magmoms:R:1:castep_labels:S:1:forces:R:3 n_minim_iter=6 energy=-62.473412567117 stress="-1.0538587223693123e-05 0.0 -0.0 0.0 0.00013453051690383427 0.0 -0.0 0.0 -4.00102914940901e-05" free_energy=-62.473412567117 pbc="T T T"
P        1.19609405       1.79874850       5.32844064       0.00000000 NULL      -0.00000100      -0.01317700       0.01415900
P        1.19609405       7.55066894       3.91666541       0.00000000 NULL      -0.00000100       0.01317800      -0.01415900
P        2.78789639       6.47345722       8.53921843       0.00000000 NULL       0.00000100      -0.01317800      -0.01415800
P        2.78789639       2.87596022       0.70588762       0.00000000 NULL       0.00000100       0.01317800       0.01415800
P        2.78789639       0.45241298       6.37777796       0.00000000 NULL       0.00000100       0.01750300       0.00300900
P        2.78789639       8.89700447       2.86732808       0.00000000 NULL       0.00000100      -0.01750400      -0.00300900
P        1.19609405       5.12712170       7.48988111       0.00000000 NULL      -0.00000100       0.01750300      -0.00300900
P        1.19609405       4.22229575       1.75522494       0.00000000 NULL      -0.00000100      -0.01750300       0.00300900
P        2.78789639       6.40592563       6.36484259       0.00000000 NULL       0.00000100      -0.02766900       0.03722700
P        2.78789639       2.94349181       2.88026346       0.00000000 NULL       0.00000100       0.02766900      -0.03722700
P        1.19609405       1.73121691       7.50281648       0.00000000 NULL      -0.00000100      -0.02766800      -0.03722700
P        1.19609405       7.61820054       1.74228957       0.00000000 NULL      -0.00000100       0.02766800       0.03722700
12
Lattice="3.1846058280878626 0.0 0.0 0.0 9.346910800346121 0.0 0.0 0.0 9.246610305770073" Properties=species:S:1:pos:R:3:initial_magmoms:R:1:castep_labels:S:1:forces:R:3 n_minim_iter=7 energy=-62.474525813873 stress="-0.00010867009734609289 0.0 0.0 0.0 -0.00038061783343285493 -0.0 0.0 -0.0 -0.0001424955271786614" free_energy=-62.474525813873 pbc="T T T"
P        1.19647018       1.79241199       5.32063622       0.00000000 NULL      -0.00000000       0.00632200       0.00495000
P        1.19647018       7.55449881       3.92597409       0.00000000 NULL      -0.00000000      -0.00632200      -0.00495000
P        2.78877309       6.46586739       8.54927924       0.00000000 NULL       0.00000000       0.00632200      -0.00495100
P        2.78877309       2.88104341       0.69733107       0.00000000 NULL       0.00000000      -0.00632200       0.00495100
P        2.78877309       0.44651152       6.37068899       0.00000000 NULL       0.00000000       0.00062900      -0.00377100
P        2.78877309       8.90039928       2.87592131       0.00000000 NULL       0.00000000      -0.00062900       0.00377100
P        1.19647018       5.11996692       7.49922646       0.00000000 NULL      -0.00000000       0.00062900       0.00377100
P        1.19647018       4.22694388       1.74738384       0.00000000 NULL      -0.00000000      -0.00062900      -0.00377100
P        2.78877309       6.39495615       6.37582511       0.00000000 NULL       0.00000000      -0.00456900       0.00816700
P        2.78877309       2.95195465       2.87078519       0.00000000 NULL       0.00000000       0.00456900      -0.00816700
P        1.19647018       1.72150075       7.49409034       0.00000000 NULL      -0.00000000      -0.00457000      -0.00816700
P        1.19647018       7.62541005       1.75251996       0.00000000 NULL      -0.00000000       0.00457000       0.00816700
