4
Lattice="3.3105900000000004 1.1554410226598604e-16 -7.905463585832007e-16 1.0875298386543848 4.617457881782617 -7.248559268591169e-17 0.5827660462692595 1.6890105171002403 5.50101139959194" Properties=species:S:1:pos:R:3:initial_magmoms:R:1:castep_labels:S:1 n_minim_iter=1 pbc="T T T"
P        1.96871199       3.34777296       3.59167140       0.00000000 NULL
P        3.56699287       2.15905341       3.19039628       0.00000000 NULL
P        1.64739108       2.79907758       1.61070494       0.00000000 NULL
P        1.76450466       0.79845025       2.07564107       0.00000000 NULL
4
Lattice="3.3133429656005045 -0.0002723043279056632 0.000101010344564295 1.088054391217583 4.622956197286008 0.00014760965370429167 0.5832795707654225 1.6911428447927126 5.504542867460779" Properties=species:S:1:pos:R:3:initial_magmoms:R:1:castep_labels:S:1 n_minim_iter=2 pbc="T T T"
P        1.97011271       3.35210297       3.59440652       0.00000000 NULL
P        3.56997135       2.16110023       3.19262222       0.00000000 NULL
P        1.64849786       2.80259076       1.61147750       0.00000000 NULL
P        1.76602973       0.79910124       2.07701295       0.00000000 NULL
4
Lattice="3.4908722890902446 -0.018728827427213993 0.007075799214162434 1.1206305237124035 4.981979704025115 0.010090521217694416 0.6167035808073038 1.8305540144875379 5.731964315091181" Properties=species:S:1:pos:R:3:initial_magmoms:R:1:castep_labels:S:1 n_minim_iter=3 pbc="T T T"
P        2.05981990       3.63579868       3.77132079       0.00000000 NULL
P        3.76221980       2.29315046       3.33656279       0.00000000 NULL
P        1.71898620       3.03236164       1.66117726       0.00000000 NULL
P        1.86469619       0.84089894       2.16551609       0.00000000 NULL
4
Lattice="3.508637584784318 -0.037922922019955396 0.02090693387478911 1.0996953930555977 5.0571870861457295 0.012310699198781557 0.633020676230321 1.8542236775516847 5.7801802865982435" Properties=species:S:1:pos:R:3:initial_magmoms:R:1:castep_labels:S:1 n_minim_iter=4 pbc="T T T"
P        2.06389100       3.69282546       3.81505293       0.00000000 NULL
P        3.78704044       2.29199118       3.37655226       0.00000000 NULL
P        1.71257428       3.07315775       1.67355631       0.00000000 NULL
P        1.88118133       0.84781215       2.19095503       0.00000000 NULL
4
Lattice="3.492466265050996 -0.056328369241156126 0.03672501982844362 1.068712042631753 5.063629283970482 0.009206120140425116 0.6470678343375731 1.8456626610485836 5.774312899442235" Properties=species:S:1:pos:R:3:initial_magmoms:R:1:castep_labels:S:1 n_minim_iter=5 pbc="T T T"
P        2.05149826       3.69193210       3.81751620       0.00000000 NULL
P        3.77752092       2.25740639       3.38441125       0.00000000 NULL
P        1.69099843       3.06785226       1.67237576       0.00000000 NULL
P        1.88036495       0.84465557       2.19751195       0.00000000 NULL
4
Lattice="3.4202946926814115 -0.15289419556971337 0.13627375358587462 0.9103181085154234 5.105040795698644 -0.02144215579609783 0.7505112933797068 1.7799432762061247 5.725839980053176" Properties=species:S:1:pos:R:3:initial_magmoms:R:1:castep_labels:S:1 n_minim_iter=6 pbc="T T T"
P        2.01434162       3.67812092       3.81591554       0.00000000 NULL
P        3.75756603       2.05760546       3.43059882       0.00000000 NULL
P        1.58816777       3.03903641       1.65599810       0.00000000 NULL
P        1.89446772       0.82666860       2.23195246       0.00000000 NULL
