3
Lattice="3.418250000000001 8.057685330373475e-16 -1.7664080297824902e-16 -0.8595419905004107 4.435187843898679 5.95000281345563e-16 -0.11410369179245972 -1.115686934802746 4.497714341299343" Properties=species:S:1:pos:R:3:initial_magmoms:R:1:castep_labels:S:1 n_minim_iter=1 pbc="T T T"
P        0.85224052       2.78742331       0.04400924       0.00000000 NULL
P        0.54371041      -0.41587968       3.17325981       0.00000000 NULL
P        2.42961371       0.61675527       4.18085936       0.00000000 NULL
3
Lattice="3.4207406097083015 -0.0002927700778829692 -0.0003832255735462484 -0.8605481409916605 4.436884950296733 0.001225417071800812 -0.11459551865410819 -1.1149405862229254 4.497676718972838" Properties=species:S:1:pos:R:3:initial_magmoms:R:1:castep_labels:S:1 n_minim_iter=2 pbc="T T T"
P        0.85257743       2.78871739       0.04474880       0.00000000 NULL
P        0.54387227      -0.41537388       3.17311335       0.00000000 NULL
P        2.43081697       0.61760491       4.18098233       0.00000000 NULL
3
Lattice="3.6026636120130524 -0.022173400191411285 -0.028804930606588407 -0.9346840772792923 4.560432039556784 0.09048764786703423 -0.15092371681788153 -1.0606317896160284 4.495064871264092" Properties=species:S:1:pos:R:3:initial_magmoms:R:1:castep_labels:S:1 n_minim_iter=3 pbc="T T T"
P        0.87645407       2.88311704       0.09876636       0.00000000 NULL
P        0.55568595      -0.37896386       3.16241030       0.00000000 NULL
P        2.51808573       0.67881546       4.18930668       0.00000000 NULL
3
Lattice="3.624463613281606 -0.02991823776490827 -0.051496807817854776 -0.9502147803999661 4.5827779567221505 0.14018170163495822 -0.1789814153762148 -1.0208963923388492 4.451334345473996" Properties=species:S:1:pos:R:3:initial_magmoms:R:1:castep_labels:S:1 n_minim_iter=4 pbc="T T T"
P        0.87191869       2.90973693       0.12567934       0.00000000 NULL
P        0.54377878      -0.35306551       3.12746443       0.00000000 NULL
P        2.50304318       0.70474774       4.14660587       0.00000000 NULL
3
Lattice="3.6083943498841045 -0.02875517368321182 -0.07039566499298659 -0.9446649773360052 4.580164523472737 0.18297707010472022 -0.20369163670964543 -0.9817719186756384 4.401082932163403" Properties=species:S:1:pos:R:3:initial_magmoms:R:1:castep_labels:S:1 n_minim_iter=5 pbc="T T T"
P        0.86592544       2.92117363       0.14867171       0.00000000 NULL
P        0.52759387      -0.32743107       3.08947808       0.00000000 NULL
P        2.46735120       0.73087239       4.09812810       0.00000000 NULL
3
Lattice="3.57877254112442 -0.02030619826912712 -0.0932111925807483 -0.9262538074351855 4.572286531032368 0.24182414472791813 -0.23548105509060085 -0.9267479623301877 4.3375623490103825" Properties=species:S:1:pos:R:3:initial_magmoms:R:1:castep_labels:S:1 n_minim_iter=6 pbc="T T T"
P        0.86214659       2.93513742       0.18155271       0.00000000 NULL
P        0.50561828      -0.29124935       3.04167006       0.00000000 NULL
P        2.41796069       0.77489635       4.03954477       0.00000000 NULL
3
Lattice="3.5417211680212772 -0.005682737620333674 -0.11687038896685491 -0.8979630136392063 4.56218478157782 0.3113181037384846 -0.27014786191275475 -0.8611794416632269 4.2743827603474855" Properties=species:S:1:pos:R:3:initial_magmoms:R:1:castep_labels:S:1 n_minim_iter=7 pbc="T T T"
P        0.86134651       2.95114671       0.22214198       0.00000000 NULL
P        0.48125325      -0.24853743       2.99378911       0.00000000 NULL
P        2.36323786       0.83420835       3.98424467       0.00000000 NULL
3
Lattice="3.498588841949551 0.012292210002089207 -0.14060686253382484 -0.8637945606014573 4.550145490651592 0.3903461752946606 -0.3058072590164626 -0.7857985815147595 4.212482984020437" Properties=species:S:1:pos:R:3:initial_magmoms:R:1:castep_labels:S:1 n_minim_iter=8 pbc="T T T"
P        0.86104229       2.96833284       0.27050550       0.00000000 NULL
P        0.45594908      -0.20045788       2.94646330       0.00000000 NULL
P        2.30491544       0.90586007       3.93297720       0.00000000 NULL
3
Lattice="3.452132327028324 0.03161020705959225 -0.1637890081116944 -0.8270476079136737 4.535708948670959 0.4742794215762169 -0.34106467017450076 -0.7048287892324668 4.152608501479943" Properties=species:S:1:pos:R:3:initial_magmoms:R:1:castep_labels:S:1 n_minim_iter=9 pbc="T T T"
P        0.86009000       2.98520079       0.32403799       0.00000000 NULL
P        0.43100698      -0.15014405       2.90005281       0.00000000 NULL
P        2.24553260       0.98412574       3.88509376       0.00000000 NULL
3
Lattice="3.4012286676892165 0.05308749297679418 -0.18831074828940778 -0.7863807081573655 4.516098582030455 0.5684194941585038 -0.378641036533726 -0.612757046020635 4.088993615440486" Properties=species:S:1:pos:R:3:initial_magmoms:R:1:castep_labels:S:1 n_minim_iter=10 pbc="T T T"
P        0.85806425       3.00239400       0.38690726       0.00000000 NULL
P        0.40533840      -0.09476695       2.84970336       0.00000000 NULL
P        2.18196103       1.07276296       3.83482128       0.00000000 NULL
3
Lattice="3.218275292857335 0.13888145659489043 -0.2743142120700673 -0.6290579691854848 4.408516783038433 0.8838598651662761 -0.5136991982384395 -0.2960288552333399 3.875655122138602" Properties=species:S:1:pos:R:3:initial_magmoms:R:1:castep_labels:S:1 n_minim_iter=11 pbc="T T T"
P        0.85496962       3.04360823       0.61091000       0.00000000 NULL
P        0.31561680       0.09003676       2.67165674       0.00000000 NULL
P        1.95888853       1.37490991       3.65651389       0.00000000 NULL
3
Lattice="3.2856714017614745 0.12018651833806544 -0.2916890159515099 -0.6702619035081806 4.544792978619147 0.7627073777898257 -0.5327087355961976 -0.45579408962410944 3.9110450285647813" Properties=species:S:1:pos:R:3:initial_magmoms:R:1:castep_labels:S:1 n_minim_iter=12 pbc="T T T"
P        0.84185494       3.10694999       0.55045779       0.00000000 NULL
P        0.32372266       0.00222893       2.66800190       0.00000000 NULL
P        1.98537651       1.25772837       3.62192346       0.00000000 NULL
3
Lattice="3.2386967327726417 0.16504602948549726 -0.28290807899806036 -0.6002444796772467 4.420487770473582 0.7548132917914577 -0.5342285311848459 -0.43462592685858953 3.857763905189125" Properties=species:S:1:pos:R:3:initial_magmoms:R:1:castep_labels:S:1 n_minim_iter=13 pbc="T T T"
P        0.86649761       3.04589714       0.55497053       0.00000000 NULL
P        0.31952848       0.01264991       2.62817450       0.00000000 NULL
P        1.97057754       1.27292760       3.57372350       0.00000000 NULL
3
Lattice="3.2540644345202128 0.17613366190965718 -0.29383362332104934 -0.5897225612699565 4.417662062599751 0.761186012423833 -0.5527361931537793 -0.43131004024633124 3.8600692037517277" Properties=species:S:1:pos:R:3:initial_magmoms:R:1:castep_labels:S:1 n_minim_iter=14 pbc="T T T"
P        0.87371261       3.05197092       0.56680513       0.00000000 NULL
P        0.31536872       0.01247501       2.61876987       0.00000000 NULL
P        1.97076803       1.28545957       3.56620091       0.00000000 NULL
