12
Lattice="6.208389999999995 8.570958543005491e-16 -6.280278427541369e-18 -1.3623149802713286 6.326300691314657 -1.3129044290558279e-15 -2.3013053753746897 -0.7742883545345984 6.778628124495669" Properties=species:S:1:pos:R:3:initial_magmoms:R:1:castep_labels:S:1 n_minim_iter=1 pbc="T T T"
P       -0.16491717       0.06554198       4.24674951       0.00000000 NULL
P        2.70968681       5.48647036       2.53187861       0.00000000 NULL
P       -0.49845223       1.71966764       0.49789566       0.00000000 NULL
P        3.04322187       3.83234470       6.28073246       0.00000000 NULL
P        2.47250333       5.67356229       5.68941647       0.00000000 NULL
P        0.07226631      -0.12154995       1.08921165       0.00000000 NULL
P       -0.08602815       3.55532446       1.52595257       0.00000000 NULL
P        2.63079779       1.99668788       5.25267555       0.00000000 NULL
P        1.77273980      -0.39726701       4.92310815       0.00000000 NULL
P        0.77202984       5.94927935       1.85551997       0.00000000 NULL
P       -1.33214760       3.03773304       6.54120464       0.00000000 NULL
P        3.87691724       2.51427930       0.23742348       0.00000000 NULL
12
Lattice="6.2202574964001816 -0.0033510767810039656 0.0030964656299982338 -1.3683338011702415 6.341647922795238 -0.0009114726502354535 -2.301905570356846 -0.7750831676052838 6.787402729071385" Properties=species:S:1:pos:R:3:initial_magmoms:R:1:castep_labels:S:1 n_minim_iter=2 pbc="T T T"
P       -0.16325085       0.06567731       4.25284501       0.00000000 NULL
P        2.71326897       5.49753637       2.53674271       0.00000000 NULL
P       -0.49997109       1.72393134       0.49832835       0.00000000 NULL
P        3.04998921       3.83928234       6.29125937       0.00000000 NULL
P        2.47710201       5.68527635       5.69843785       0.00000000 NULL
P        0.07291612      -0.12206267       1.09114988       0.00000000 NULL
P       -0.08727919       3.56361848       1.52835121       0.00000000 NULL
P        2.63729731       1.99959519       5.26123651       0.00000000 NULL
P        1.77874315      -0.39935526       4.93118599       0.00000000 NULL
P        0.77127497       5.96256894       1.85840173       0.00000000 NULL
P       -1.33265423       3.04522788       6.54987152       0.00000000 NULL
P        3.88267235       2.51798580       0.23971620       0.00000000 NULL
12
Lattice="6.5062718603677245 -0.0872313107753879 0.07993545645257277 -1.516567600095898 6.717189582191541 -0.023552654695417348 -2.31356655825026 -0.7938948543896288 6.999710003160513" Properties=species:S:1:pos:R:3:initial_magmoms:R:1:castep_labels:S:1 n_minim_iter=3 pbc="T T T"
P       -0.12171631       0.06903797       4.40069526       0.00000000 NULL
P        2.79785401       5.76702544       2.65539754       0.00000000 NULL
P       -0.53721072       1.82837137       0.50870532       0.00000000 NULL
P        3.21334842       4.00769205       6.54738748       0.00000000 NULL
P        2.58712928       5.97078363       5.91767026       0.00000000 NULL
P        0.08900842      -0.13472021       1.13842254       0.00000000 NULL
P       -0.11847217       3.76646695       1.58671997       0.00000000 NULL
P        2.79460987       2.06959646       5.46937283       0.00000000 NULL
P        1.92525968      -0.45099002       5.12766282       0.00000000 NULL
P        0.75087802       6.28705344       1.92842999       0.00000000 NULL
P       -1.34372118       3.22864873       6.75980627       0.00000000 NULL
P        4.01985888       2.60741468       0.29628653       0.00000000 NULL
12
Lattice="6.518803133796205 -0.13264903115766186 0.1116654484876446 -1.5655976541623813 6.800014008231185 -0.02180058691554993 -2.2779028931971332 -0.7766391302574566 7.061500174839283" Properties=species:S:1:pos:R:3:initial_magmoms:R:1:castep_labels:S:1 n_minim_iter=4 pbc="T T T"
P       -0.10203293       0.07704842       4.44712554       0.00000000 NULL
P        2.77733551       5.81367743       2.70423950       0.00000000 NULL
P       -0.54730697       1.85567922       0.51413512       0.00000000 NULL
P        3.22260955       4.03504663       6.63722992       0.00000000 NULL
P        2.58209420       6.02824595       5.99488610       0.00000000 NULL
P        0.09320839      -0.13752010       1.15647894       0.00000000 NULL
P       -0.13494943       3.81356542       1.61255336       0.00000000 NULL
P        2.81025201       2.07716042       5.53881168       0.00000000 NULL
P        1.95437662      -0.46027138       5.19003211       0.00000000 NULL
P        0.72092596       6.35099723       1.96133293       0.00000000 NULL
P       -1.33114952       3.28287892       6.82819952       0.00000000 NULL
P        4.00645211       2.60784692       0.32316552       0.00000000 NULL
12
Lattice="6.472762746096992 -0.18133277290358835 0.14102279356297606 -1.6051033036468552 6.8309547881890875 -0.015431615972389567 -2.2227113264666696 -0.7473457610899037 7.098302752736844" Properties=species:S:1:pos:R:3:initial_magmoms:R:1:castep_labels:S:1 n_minim_iter=5 pbc="T T T"
P       -0.08253501       0.08712574       4.47810694       0.00000000 NULL
P        2.72748312       5.81515052       2.74578699       0.00000000 NULL
P       -0.55388906       1.86998396       0.51878874       0.00000000 NULL
P        3.19883718       4.03229230       6.70510519       0.00000000 NULL
P        2.54895864       6.04094796       6.05334303       0.00000000 NULL
P        0.09598947      -0.13867171       1.17055090       0.00000000 NULL
P       -0.15301495       3.83282031       1.63450229       0.00000000 NULL
P        2.79796307       2.06945595       5.58939164       0.00000000 NULL
P        1.96456752      -0.46327126       5.23300726       0.00000000 NULL
P        0.68038060       6.36554751       1.99088667       0.00000000 NULL
P       -1.31087619       3.31665524       6.87480752       0.00000000 NULL
P        3.95582431       2.58562101       0.34908641       0.00000000 NULL
12
Lattice="6.304490764994316 -0.3218945226896664 0.23245529605297702 -1.7114104870274014 6.861497634291451 0.00138016959560201 -2.0429759242994985 -0.6556945064110336 7.200077527206001" Properties=species:S:1:pos:R:3:initial_magmoms:R:1:castep_labels:S:1 n_minim_iter=6 pbc="T T T"
P       -0.02138701       0.11571985       4.56622223       0.00000000 NULL
P        2.57149136       5.76818875       2.86769076       0.00000000 NULL
P       -0.56958152       1.89445485       0.53133813       0.00000000 NULL
P        3.11968587       3.98945375       6.90257487       0.00000000 NULL
P        2.44501512       6.02372541       6.22400586       0.00000000 NULL
P        0.10508923      -0.13981681       1.20990714       0.00000000 NULL
P       -0.20398415       3.85524759       1.69683702       0.00000000 NULL
P        2.75408850       2.02866102       5.73707597       0.00000000 NULL
P        1.98961361      -0.46786660       5.35771289       0.00000000 NULL
P        0.56049074       6.35177521       2.07620011       0.00000000 NULL
P       -1.23862177       3.38480547       7.00602837       0.00000000 NULL
P        3.78872613       2.49910313       0.42788462       0.00000000 NULL
12
Lattice="6.116489380895129 -0.47247839834876865 0.3754801468208346 -1.8236008898231293 6.825250374673516 -0.011117524206221686 -1.7983462839216113 -0.5711592243988735 7.363379883168581" Properties=species:S:1:pos:R:3:initial_magmoms:R:1:castep_labels:S:1 n_minim_iter=7 pbc="T T T"
P        0.07284928       0.13290289       4.70155685       0.00000000 NULL
P        2.42169292       5.64870986       3.02618566       0.00000000 NULL
P       -0.58156443       1.89675917       0.54015005       0.00000000 NULL
P        3.07610664       3.88485358       7.18759245       0.00000000 NULL
P        2.37106113       5.92247249       6.46601133       0.00000000 NULL
P        0.12348107      -0.14085974       1.26173117       0.00000000 NULL
P       -0.24904663       3.83428674       1.76703231       0.00000000 NULL
P        2.74358883       1.94732601       5.96071019       0.00000000 NULL
P        2.05193048      -0.48436799       5.55585509       0.00000000 NULL
P        0.44261172       6.26598074       2.17188741       0.00000000 NULL
P       -1.11188467       3.40073963       7.19341934       0.00000000 NULL
P        3.60642688       2.38087312       0.53432316       0.00000000 NULL
12
Lattice="5.939131895327126 -0.5978417626661099 0.600826984139755 -1.912427393778864 6.764675340608569 -0.08108323097658003 -1.470924273192102 -0.5358937718396852 7.583942815821162" Properties=species:S:1:pos:R:3:initial_magmoms:R:1:castep_labels:S:1 n_minim_iter=8 pbc="T T T"
P        0.22207939       0.12386243       4.88597800       0.00000000 NULL
P        2.33370083       5.50707738       3.21770857       0.00000000 NULL
P       -0.58080592       1.88572270       0.53665509       0.00000000 NULL
P        3.13658615       3.74521711       7.56703148       0.00000000 NULL
P        2.39750365       5.77808401       6.77447749       0.00000000 NULL
P        0.15827658      -0.14714420       1.32920908       0.00000000 NULL
P       -0.25881590       3.79241318       1.83495123       0.00000000 NULL
P        2.81459613       1.83852663       6.26873534       0.00000000 NULL
P        2.18199750      -0.52242931       5.84033175       0.00000000 NULL
P        0.37378273       6.15336912       2.26335482       0.00000000 NULL
P       -0.88703145       3.35967684       7.42689763       0.00000000 NULL
P        3.44281168       2.27126296       0.67678894       0.00000000 NULL
12
Lattice="5.770140515865152 -0.6611254231280977 0.8850461803784581 -1.9398309520527202 6.599377255875782 -0.22194592835163335 -1.0900659816831795 -0.5746138011573709 7.812215642470948" Properties=species:S:1:pos:R:3:initial_magmoms:R:1:castep_labels:S:1 n_minim_iter=9 pbc="T T T"
P        0.41451829       0.07253810       5.08230207       0.00000000 NULL
P        2.32572529       5.29109993       3.39301382       0.00000000 NULL
P       -0.55999024       1.83767891       0.51260615       0.00000000 NULL
P        3.30023382       3.52595913       7.96270974       0.00000000 NULL
P        2.53288654       5.52509338       7.07295678       0.00000000 NULL
P        0.20735704      -0.16145534       1.40235912       0.00000000 NULL
P       -0.21639995       3.68174353       1.87701390       0.00000000 NULL
P        2.95664354       1.68189450       6.59830199       0.00000000 NULL
P        2.35772091      -0.58121937       6.15993868       0.00000000 NULL
P        0.38252267       5.94485741       2.31537721       0.00000000 NULL
P       -0.57166181       3.20145604       7.64611818       0.00000000 NULL
P        3.31190539       2.16218199       0.82919771       0.00000000 NULL
12
Lattice="5.662127986265392 -0.6329118213545099 1.2823983732680009 -1.8873801853425964 6.4047519458974085 -0.46274372695700583 -0.6196981243588081 -0.7265981469774393 8.246076738396908" Properties=species:S:1:pos:R:3:initial_magmoms:R:1:castep_labels:S:1 n_minim_iter=10 pbc="T T T"
P        0.68944585      -0.03352627       5.42641023       0.00000000 NULL
P        2.46560383       5.07876825       3.63932115       0.00000000 NULL
P       -0.51161739       1.77073729       0.46793670       0.00000000 NULL
P        3.66666707       3.27450469       8.59779468       0.00000000 NULL
P        2.87150033       5.23694111       7.54057540       0.00000000 NULL
P        0.28354935      -0.19169913       1.52515599       0.00000000 NULL
P       -0.08551140       3.54738179       1.94658239       0.00000000 NULL
P        3.24056108       1.49786019       7.11914900       0.00000000 NULL
P        2.63167967      -0.66872443       6.68318212       0.00000000 NULL
P        0.52337001       5.71396641       2.38254927       0.00000000 NULL
P       -0.09650741       2.94103524       8.04458228       0.00000000 NULL
P        3.25155708       2.10420674       1.02114911       0.00000000 NULL
12
Lattice="5.556145773323959 -0.5213180581100769 1.306917754632738 -1.750411203385591 6.256749390890546 -0.5523262284166809 -0.5675590910294552 -0.8430686584663196 8.067077037269888" Properties=species:S:1:pos:R:3:initial_magmoms:R:1:castep_labels:S:1 n_minim_iter=11 pbc="T T T"
P        0.72205092      -0.09740331       5.32069740       0.00000000 NULL
P        2.51612456       4.98976599       3.50097117       0.00000000 NULL
P       -0.47542634       1.72040437       0.41085869       0.00000000 NULL
P        3.71360182       3.17195830       8.41080987       0.00000000 NULL
P        2.94593830       5.09971999       7.32026482       0.00000000 NULL
P        0.29223718      -0.20735731       1.50140375       0.00000000 NULL
P       -0.00608794       3.46105523       1.86627302       0.00000000 NULL
P        3.24426342       1.43130745       6.95539554       0.00000000 NULL
P        2.60615529      -0.68730087       6.55309922       0.00000000 NULL
P        0.63202018       5.57966354       2.26856934       0.00000000 NULL
P        0.02025708       2.76817357       7.84218017       0.00000000 NULL
P        3.21791840       2.12418910       0.97948840       0.00000000 NULL
12
Lattice="5.641828812980964 -0.5046640270792885 1.3529958928052201 -1.7522424157380276 6.318942489813797 -0.5817453065005455 -0.5510864304337039 -0.8779897382536602 8.202383214713633" Properties=species:S:1:pos:R:3:initial_magmoms:R:1:castep_labels:S:1 n_minim_iter=12 pbc="T T T"
P        0.75452426      -0.11000427       5.41353764       0.00000000 NULL
P        2.58397571       5.04629299       3.56009616       0.00000000 NULL
P       -0.47507248       1.73420983       0.40649857       0.00000000 NULL
P        3.81357245       3.20207889       8.56713523       0.00000000 NULL
P        3.03498175       5.14869664       7.44429021       0.00000000 NULL
P        0.30351822      -0.21240792       1.52934359       0.00000000 NULL
P        0.01840663       3.49524519       1.89873603       0.00000000 NULL
P        3.32009334       1.44104353       7.07489777       0.00000000 NULL
P        2.66273729      -0.69997772       6.67192229       0.00000000 NULL
P        0.67576268       5.63626644       2.30171151       0.00000000 NULL
P        0.06587095       2.77455292       7.97211449       0.00000000 NULL
P        3.27262901       2.16173580       1.00151931       0.00000000 NULL
12
Lattice="5.629118890536826 -0.4918657635037596 1.3679169059736895 -1.7364121310024785 6.301604914987978 -0.5950621229693508 -0.5316798103749965 -0.8917162205584095 8.173627111717336" Properties=species:S:1:pos:R:3:initial_magmoms:R:1:castep_labels:S:1 n_minim_iter=13 pbc="T T T"
P        0.76836707      -0.11773831       5.39986656       0.00000000 NULL
P        2.59265988       5.03576124       3.54661533       0.00000000 NULL
P       -0.47087934       1.72792471       0.39529301       0.00000000 NULL
P        3.83190629       3.19009823       8.55118888       0.00000000 NULL
P        3.05362916       5.13211670       7.42010441       0.00000000 NULL
P        0.30739779      -0.21409377       1.52637749       0.00000000 NULL
P        0.03202634       3.48603093       1.89085212       0.00000000 NULL
P        3.32900060       1.43199200       7.05562977       0.00000000 NULL
P        2.66769063      -0.70140087       6.65523995       0.00000000 NULL
P        0.69333632       5.61942380       2.29124194       0.00000000 NULL
P        0.09408423       2.75274804       7.94429194       0.00000000 NULL
P        3.26694272       2.16527489       1.00218996       0.00000000 NULL
12
Lattice="5.630200206226317 -0.47741098265963233 1.3881329717558384 -1.7219200972409392 6.293552830651589 -0.6123963192465046 -0.5118104745256279 -0.9102973380746474 8.168288093798234" Properties=species:S:1:pos:R:3:initial_magmoms:R:1:castep_labels:S:1 n_minim_iter=14 pbc="T T T"
P        0.78625540      -0.12725944       5.40177515       0.00000000 NULL
P        2.61021424       5.03310395       3.54224959       0.00000000 NULL
P       -0.46729556       1.72366077       0.38326511       0.00000000 NULL
P        3.86376520       3.18218374       8.56075963       0.00000000 NULL
P        3.08374316       5.12217656       7.41619044       0.00000000 NULL
P        0.31272647      -0.21633205       1.52783430       0.00000000 NULL
P        0.04860026       3.48192218       1.88890505       0.00000000 NULL
P        3.34786938       1.42392233       7.05511969       0.00000000 NULL
P        2.67990677      -0.70481948       6.65729648       0.00000000 NULL
P        0.71656287       5.61066399       2.28672827       0.00000000 NULL
P        0.12689889       2.73178831       7.93865846       0.00000000 NULL
P        3.26957074       2.17405620       1.00536629       0.00000000 NULL
12
Lattice="5.6449802505601845 -0.4000485303906075 1.502004553679757 -1.646331569544348 6.247411395311562 -0.7086695876278122 -0.40260682165163847 -1.0117873640572992 8.149470082386078" Properties=species:S:1:pos:R:3:initial_magmoms:R:1:castep_labels:S:1 n_minim_iter=15 pbc="T T T"
P        0.89026272      -0.17950733       5.42113501       0.00000000 NULL
P        2.70577914       5.01508283       3.52167004       0.00000000 NULL
P       -0.45168772       1.69911821       0.31093452       0.00000000 NULL
P        4.04772958       3.13645729       8.63187053       0.00000000 NULL
P        3.25232972       5.06286831       7.40552394       0.00000000 NULL
P        0.34371214      -0.22729281       1.53728111       0.00000000 NULL
P        0.14224674       3.45950943       1.88622697       0.00000000 NULL
P        3.45379512       1.37606607       7.05657808       0.00000000 NULL
P        2.74819958      -0.72262007       6.67177662       0.00000000 NULL
P        0.84784228       5.55819557       2.27102843       0.00000000 NULL
P        0.31026062       2.61295214       7.92037837       0.00000000 NULL
P        3.28578124       2.22262337       1.02242668       0.00000000 NULL
12
Lattice="5.634861252251941 -0.41991365935011254 1.5678918701192732 -1.664353555290881 6.222831371333676 -0.6942018129707224 -0.32443939668650534 -0.9698882432099065 8.145404236751125" Properties=species:S:1:pos:R:3:initial_magmoms:R:1:castep_labels:S:1 n_minim_iter=16 pbc="T T T"
P        0.96325684      -0.15958255       5.44309076       0.00000000 NULL
P        2.68281146       4.99261202       3.57600353       0.00000000 NULL
P       -0.46924695       1.68670762       0.26710181       0.00000000 NULL
P        4.11531525       3.14632184       8.75199249       0.00000000 NULL
P        3.28330351       5.04487629       7.48242548       0.00000000 NULL
P        0.36276479      -0.21184682       1.53666881       0.00000000 NULL
P        0.16682593       3.46405606       1.94741764       0.00000000 NULL
P        3.47924237       1.36897341       7.07167665       0.00000000 NULL
P        2.77305388      -0.69134510       6.66407465       0.00000000 NULL
P        0.87301442       5.52437457       2.35501964       0.00000000 NULL
P        0.39210603       2.61175392       7.95784326       0.00000000 NULL
P        3.25396227       2.22127555       1.06125103       0.00000000 NULL
12
Lattice="5.768347230495968 -0.4109288031641306 1.6857492548915927 -1.6844890567521753 6.212624063107437 -0.7471499501871717 -0.24635755673845758 -1.00123394488664 8.141382560034996" Properties=species:S:1:pos:R:3:initial_magmoms:R:1:castep_labels:S:1 n_minim_iter=17 pbc="T T T"
P        1.05471997      -0.17531622       5.45818780       0.00000000 NULL
P        2.78278065       4.97577754       3.62179406       0.00000000 NULL
P       -0.48127267       1.67392103       0.22506666       0.00000000 NULL
P        4.31877329       3.12654029       8.85491520       0.00000000 NULL
P        3.44803068       5.00970958       7.54262825       0.00000000 NULL
P        0.38946994      -0.20924826       1.53735362       0.00000000 NULL
P        0.21310728       3.45863315       1.95925451       0.00000000 NULL
P        3.62439334       1.34182816       7.12072735       0.00000000 NULL
P        2.88857795      -0.70550183       6.70220323       0.00000000 NULL
P        0.94892266       5.50596315       2.37777863       0.00000000 NULL
P        0.50667040       2.56562394       7.96700347       0.00000000 NULL
P        3.33083022       2.23483737       1.11297839       0.00000000 NULL
12
Lattice="5.6875089601295254 -0.3953134603075579 1.6662711145445994 -1.650838699572924 6.163939518818564 -0.7174968702921164 -0.2396073851101662 -0.9742894164126774 8.081862917974917" Properties=species:S:1:pos:R:3:initial_magmoms:R:1:castep_labels:S:1 n_minim_iter=18 pbc="T T T"
P        1.04667442      -0.15911446       5.41959914       0.00000000 NULL
P        2.75038846       4.95345111       3.61103802       0.00000000 NULL
P       -0.47435401       1.66031283       0.22462278       0.00000000 NULL
P        4.27141688       3.13402382       8.80601438       0.00000000 NULL
P        3.41251179       4.99583201       7.50620981       0.00000000 NULL
P        0.38455109      -0.20149537       1.52442735       0.00000000 NULL
P        0.21884371       3.44077783       1.96175426       0.00000000 NULL
P        3.57821917       1.35355881       7.06888290       0.00000000 NULL
P        2.84719485      -0.67844630       6.64402284       0.00000000 NULL
P        0.94986803       5.47278294       2.38661432       0.00000000 NULL
P        0.50878859       2.56529588       7.92070566       0.00000000 NULL
P        3.28827429       2.22904076       1.10993150       0.00000000 NULL
12
Lattice="5.701963938941863 -0.3894556404811247 1.6832625337044036 -1.6480415016774976 6.1703736209884354 -0.7119522160720836 -0.2271440009356192 -0.9674694517646354 8.111053274041687" Properties=species:S:1:pos:R:3:initial_magmoms:R:1:castep_labels:S:1 n_minim_iter=19 pbc="T T T"
P        1.06027495      -0.15235885       5.44125198       0.00000000 NULL
P        2.76650349       4.96580738       3.64111161       0.00000000 NULL
P       -0.47461210       1.66096149       0.22428698       0.00000000 NULL
P        4.30139053       3.15248703       8.85807661       0.00000000 NULL
P        3.43853707       5.01167042       7.55232721       0.00000000 NULL
P        0.38824137      -0.19822189       1.53003638       0.00000000 NULL
P        0.22850220       3.44854499       1.97996443       0.00000000 NULL
P        3.59827624       1.36490354       7.10239916       0.00000000 NULL
P        2.86204717      -0.67000402       6.67063930       0.00000000 NULL
P        0.96473127       5.48345255       2.41172429       0.00000000 NULL
P        0.52773495       2.57561164       7.95741165       0.00000000 NULL
P        3.29904349       2.23783689       1.12495194       0.00000000 NULL
