7
Lattice="3.5385999999999984 5.018000749094237e-16 -6.702935870113262e-16 1.512861067641874 6.540379210329745 -1.0179973304256394e-15 1.6586640676962239 1.7603185600831017 6.881732162011279" Properties=species:S:1:pos:R:3:initial_magmoms:R:1:castep_labels:S:1 n_minim_iter=1 pbc="T T T"
P        4.23749777       6.50027489       1.56147810       0.00000000 NULL
P        2.82053744       2.86211826       6.33304822       0.00000000 NULL
P        2.10046083       3.15153234       1.90094776       0.00000000 NULL
P        4.00531928       1.95255420       1.60374020       0.00000000 NULL
P        2.89268027       3.67403099       4.47670303       0.00000000 NULL
P        4.47373969       6.52358580       6.75275818       0.00000000 NULL
P        4.74888706       4.03014594       5.75472534       0.00000000 NULL
7
Lattice="3.539735595912854 9.136393674586557e-05 0.0005458520351188913 1.5135154376293223 6.54154554892243 -0.0007115088720573135 1.6603033626929506 1.7596705958789132 6.885626785112302" Properties=species:S:1:pos:R:3:initial_magmoms:R:1:castep_labels:S:1 n_minim_iter=2 pbc="T T T"
P        4.23921993       6.50124865       1.56200583       0.00000000 NULL
P        2.82257310       2.86144955       6.33699527       0.00000000 NULL
P        2.10170879       3.15212175       1.90183585       0.00000000 NULL
P        4.00676723       1.95256212       1.60500505       0.00000000 NULL
P        2.89445228       3.67416684       4.47881255       0.00000000 NULL
P        4.47636794       6.52377059       6.75643159       0.00000000 NULL
P        4.75126475       4.03042075       5.75812557       0.00000000 NULL
7
Lattice="3.59595906699364 0.004674271622783425 0.028531913235950584 1.5460232810245758 6.598407716022015 -0.036608819747714294 1.7433632751316348 1.72623542955436 7.081845584362662" Properties=species:S:1:pos:R:3:initial_magmoms:R:1:castep_labels:S:1 n_minim_iter=3 pbc="T T T"
P        4.32489899       6.54837118       1.58874831       0.00000000 NULL
P        2.92533316       2.82650934       6.53649929       0.00000000 NULL
P        2.16437250       3.18094234       1.94657135       0.00000000 NULL
P        4.07872735       1.95222827       1.66921265       0.00000000 NULL
P        2.98340692       3.67986123       4.58490273       0.00000000 NULL
P        4.60844668       6.53079994       6.94191134       0.00000000 NULL
P        4.87045974       4.04293104       5.92963219       0.00000000 NULL
7
Lattice="3.575989781854603 0.009457507939406702 0.052555741319222575 1.5463266284862411 6.538221913418906 -0.051361679299325884 1.7831030689266376 1.6853984933189554 7.128994327191217" Properties=species:S:1:pos:R:3:initial_magmoms:R:1:castep_labels:S:1 n_minim_iter=4 pbc="T T T"
P        4.31753839       6.48585365       1.59711332       0.00000000 NULL
P        2.95860235       2.76701044       6.59645575       0.00000000 NULL
P        2.17904184       3.15894871       1.95615671       0.00000000 NULL
P        4.06419098       1.92359235       1.69979204       0.00000000 NULL
P        3.00417394       3.63325672       4.60706208       0.00000000 NULL
P        4.63725008       6.44331090       6.99644466       0.00000000 NULL
P        4.88367478       4.00222331       5.98208643       0.00000000 NULL
7
Lattice="3.491744492447562 0.040350917873339276 0.15578311841163697 1.5674093158744569 6.328148110543977 -0.07544426392827232 1.9597352877181795 1.5680081100151348 7.2547139609833495" Properties=species:S:1:pos:R:3:initial_magmoms:R:1:castep_labels:S:1 n_minim_iter=5 pbc="T T T"
P        4.30730089       6.28243829       1.65274280       0.00000000 NULL
P        3.10931358       2.58839563       6.78207236       0.00000000 NULL
P        2.24640142       3.10016689       1.99285947       0.00000000 NULL
P        4.01527164       1.83865743       1.82286230       0.00000000 NULL
P        3.10391880       3.49012032       4.67603218       0.00000000 NULL
P        4.78198319       6.16364321       7.18443628       0.00000000 NULL
P        4.95695719       3.89584394       6.15694837       0.00000000 NULL
7
Lattice="3.5259047971385598 0.09184683253013493 0.2659729218582315 1.677193582156046 6.3974879303596195 -0.01192803586399319 2.215657516445775 1.62214599275261 7.3447818822532245" Properties=species:S:1:pos:R:3:initial_magmoms:R:1:castep_labels:S:1 n_minim_iter=6 pbc="T T T"
P        4.47869587       6.38327255       1.78733925       0.00000000 NULL
P        3.37936241       2.64576513       6.93633633       0.00000000 NULL
P        2.39085051       3.22121397       2.05534397       0.00000000 NULL
P        4.13791850       1.88019801       1.96974651       0.00000000 NULL
P        3.33641301       3.56907087       4.76787611       0.00000000 NULL
P        5.12261087       6.25239692       7.40923581       0.00000000 NULL
P        5.22074860       4.05404692       6.34147328       0.00000000 NULL
7
Lattice="3.4502921618527767 0.10059065764220636 0.29006951740560416 1.6610280138058742 6.257881527831486 0.021744835271443032 2.231427106959503 1.6122544396769483 7.264155681591546" Properties=species:S:1:pos:R:3:initial_magmoms:R:1:castep_labels:S:1 n_minim_iter=7 pbc="T T T"
P        4.41241363       6.25561024       1.80959356       0.00000000 NULL
P        3.36937774       2.61378651       6.87927991       0.00000000 NULL
P        2.36823618       3.17797606       2.04529458       0.00000000 NULL
P        4.07331972       1.84617748       1.98443267       0.00000000 NULL
P        3.31930773       3.51081171       4.73277225       0.00000000 NULL
P        5.08548018       6.12879256       7.37876718       0.00000000 NULL
P        5.16248533       4.00780889       6.30681831       0.00000000 NULL
7
Lattice="3.4781826888655063 0.10246962855772815 0.3040726895343584 1.676424971581908 6.2892350321182775 0.02977606027359682 2.2726679034242667 1.6235087840803986 7.342177200294382" Properties=species:S:1:pos:R:3:initial_magmoms:R:1:castep_labels:S:1 n_minim_iter=8 pbc="T T T"
P        4.45315518       6.28516571       1.84055033       0.00000000 NULL
P        3.41918970       2.62868022       6.96020831       0.00000000 NULL
P        2.39494339       3.20672859       2.06980730       0.00000000 NULL
P        4.11670483       1.85264163       2.02168920       0.00000000 NULL
P        3.36650859       3.53066153       4.78459901       0.00000000 NULL
P        5.14832483       6.15336868       7.47527015       0.00000000 NULL
P        5.21859593       4.04004352       6.38629459       0.00000000 NULL
7
Lattice="3.4709077209158345 0.1090202433213998 0.318324312863123 1.6854221707103147 6.272456477775198 0.04194415184421303 2.300232560474827 1.6277017796266697 7.362827786034395" Properties=species:S:1:pos:R:3:initial_magmoms:R:1:castep_labels:S:1 n_minim_iter=9 pbc="T T T"
P        4.46097170       6.27278723       1.86271648       0.00000000 NULL
P        3.44458625       2.63115135       6.98797646       0.00000000 NULL
P        2.40513970       3.21225613       2.08051072       0.00000000 NULL
P        4.12193715       1.85171924       2.04530876       0.00000000 NULL
P        3.38896801       3.52889177       4.80388168       0.00000000 NULL
P        5.17601226       6.13885914       7.51785194       0.00000000 NULL
P        5.23526820       4.04888708       6.41951302       0.00000000 NULL
7
Lattice="3.448608066599761 0.13877655055715432 0.3846365577187273 1.7308868331147311 6.232015668353974 0.09613503901847997 2.43354405449181 1.6545300858786482 7.487322666995941" Properties=species:S:1:pos:R:3:initial_magmoms:R:1:castep_labels:S:1 n_minim_iter=10 pbc="T T T"
P        4.50853110       6.24966800       1.96797423       0.00000000 NULL
P        3.57170279       2.65741085       7.14317823       0.00000000 NULL
P        2.45850745       3.26049159       2.13550138       0.00000000 NULL
P        4.16165595       1.85524849       2.16369736       0.00000000 NULL
P        3.50507495       3.53972115       4.90965499       0.00000000 NULL
P        5.31651454       6.09951082       7.74522644       0.00000000 NULL
P        5.32477937       4.11397746       6.59620609       0.00000000 NULL
7
Lattice="3.3916231676227 0.14080674095523124 0.39996276825355626 1.7102764165563988 6.373284963555542 0.10809229454482053 2.4376490263628794 1.6989571096643945 7.700094686262647" Properties=species:S:1:pos:R:3:initial_magmoms:R:1:castep_labels:S:1 n_minim_iter=11 pbc="T T T"
P        4.44023588       6.37909659       2.01236919       0.00000000 NULL
P        3.55549639       2.73997397       7.35274025       0.00000000 NULL
P        2.43542455       3.39550250       2.18848184       0.00000000 NULL
P        4.13191565       1.86957297       2.25056707       0.00000000 NULL
P        3.51535489       3.62042664       5.03820619       0.00000000 NULL
P        5.25904640       6.17134036       8.01031119       0.00000000 NULL
P        5.24159792       4.25404896       6.78390226       0.00000000 NULL
7
Lattice="3.3075244205668706 0.1530102772276393 0.3948698908432229 1.6968773419705003 6.153587995789027 0.09919642986179618 2.3943954015528766 1.6370733207307553 7.4977033791990255" Properties=species:S:1:pos:R:3:initial_magmoms:R:1:castep_labels:S:1 n_minim_iter=12 pbc="T T T"
P        4.35884818       6.17336025       1.95250199       0.00000000 NULL
P        3.48746819       2.65278996       7.16120975       0.00000000 NULL
P        2.39433733       3.28411939       2.12981524       0.00000000 NULL
P        4.04164805       1.81724900       2.19244966       0.00000000 NULL
P        3.45583808       3.49961685       4.91032460       0.00000000 NULL
P        5.16328403       5.95396704       7.80135082       0.00000000 NULL
P        5.13496866       4.12012869       6.60561763       0.00000000 NULL
7
Lattice="3.36197073514232 0.15022046066093617 0.39410027865063674 1.7149984213025182 6.2753812062178795 0.09924058204492223 2.417031730820152 1.6692595055729536 7.6348490941491995" Properties=species:S:1:pos:R:3:initial_magmoms:R:1:castep_labels:S:1 n_minim_iter=13 pbc="T T T"
P        4.41645051       6.29013204       1.98056160       0.00000000 NULL
P        3.52726048       2.70371685       7.28909875       0.00000000 NULL
P        2.42479191       3.34962824       2.16954521       0.00000000 NULL
P        4.10438638       1.84660326       2.22669858       0.00000000 NULL
P        3.50102077       3.56621333       4.99473338       0.00000000 NULL
P        5.22392317       6.06776041       7.93755067       0.00000000 NULL
P        5.19871845       4.19843601       6.71794584       0.00000000 NULL
