9
Lattice="5.15594 0.0 0.0 0.0 6.693979999999998 -5.859764940880761e-16 0.0 -3.3469899999999986 5.7971567324249555" Properties=species:S:1:pos:R:3:initial_magmoms:R:1:castep_labels:S:1 n_minim_iter=1 pbc="T T T"
P        0.23395490       0.09406615       3.27733618       0.00000000 NULL
P        1.95260157      -0.55576669       4.07702497       0.00000000 NULL
P        3.67124823       0.46170054       4.23995232       0.00000000 NULL
P        0.24717989      -0.87021171       1.51597794       0.00000000 NULL
P        1.96582656      -1.59900874       5.79279321       0.00000000 NULL
P        3.68447322       2.46922045       4.28554232       0.00000000 NULL
P        0.00347613       1.34314441       0.09136551       0.00000000 NULL
P        1.72212280       2.75454265       4.58827680       0.00000000 NULL
P        3.44076946       5.94328295       1.11751443       0.00000000 NULL
9
Lattice="5.168607081791037 0.0 0.0 0.0 6.69984950359065 -6.345406044079479e-16 0.0 -3.3499247517953243 5.802239871642064" Properties=species:S:1:pos:R:3:initial_magmoms:R:1:castep_labels:S:1 n_minim_iter=2 pbc="T T T"
P        0.23456887       0.09430543       3.28014573       0.00000000 NULL
P        1.95743789      -0.55638793       4.08049612       0.00000000 NULL
P        3.68030692       0.46208251       4.24383790       0.00000000 NULL
P        0.24794966      -0.87104564       1.51706715       0.00000000 NULL
P        1.97081869      -1.60058324       5.79805396       0.00000000 NULL
P        3.69368771       2.47162888       4.28935864       0.00000000 NULL
P        0.00328298       1.34419531       0.09153671       0.00000000 NULL
P        1.72615201       2.75710021       4.59236424       0.00000000 NULL
P        3.44902104       5.94847874       1.11833893       0.00000000 NULL
9
Lattice="5.443259078435498 0.0 0.0 0.0 6.825077428324608 5.342053083546762e-18 0.0 -3.412538714162304 5.910690435724876" Properties=species:S:1:pos:R:3:initial_magmoms:R:1:castep_labels:S:1 n_minim_iter=3 pbc="T T T"
P        0.24793223       0.09954131       3.34009353       0.00000000 NULL
P        2.06235192      -0.56970352       4.15443837       0.00000000 NULL
P        3.87677162       0.47016221       4.32684897       0.00000000 NULL
P        0.26469088      -0.88882498       1.54003783       0.00000000 NULL
P        2.07911057      -1.63441434       5.91041653       0.00000000 NULL
P        3.89353027       2.52323932       4.37092651       0.00000000 NULL
P       -0.00100684       1.36645983       0.09528388       0.00000000 NULL
P        1.81341285       2.81182706       4.67965958       0.00000000 NULL
P        3.62783254       6.05932926       1.13574699       0.00000000 NULL
9
Lattice="5.509169458350691 0.0 0.0 0.0 6.848324848518944 -2.787441584738952e-16 0.0 -3.4241624242594715 5.9308232921856225" Properties=species:S:1:pos:R:3:initial_magmoms:R:1:castep_labels:S:1 n_minim_iter=4 pbc="T T T"
P        0.25176563       0.10270273       3.35136448       0.00000000 NULL
P        2.08815545      -0.57314701       4.16619788       0.00000000 NULL
P        3.92454527       0.47044429       4.34408423       0.00000000 NULL
P        0.26754572      -0.89130103       1.53947030       0.00000000 NULL
P        2.10393554      -1.64529152       5.93297748       0.00000000 NULL
P        3.94032536       2.53659256       4.38919881       0.00000000 NULL
P       -0.00150011       1.36734363       0.09784304       0.00000000 NULL
P        1.83488971       2.82522517       4.69774746       0.00000000 NULL
P        3.67127953       6.07991848       1.13523280       0.00000000 NULL
9
Lattice="5.542657858879894 0.0 0.0 0.0 6.8461860130612004 -8.601032763524139e-16 0.0 -3.4230930065305993 5.928971006344702" Properties=species:S:1:pos:R:3:initial_magmoms:R:1:castep_labels:S:1 n_minim_iter=5 pbc="T T T"
P        0.25444269       0.10605509       3.35036432       0.00000000 NULL
P        2.10199531      -0.57461993       4.16194245       0.00000000 NULL
P        3.94954793       0.46856485       4.34563525       0.00000000 NULL
P        0.26758154      -0.88950263       1.53144051       0.00000000 NULL
P        2.11513416      -1.65207530       5.93358263       0.00000000 NULL
P        3.96268678       2.54157794       4.39291888       0.00000000 NULL
P       -0.00106539       1.36159859       0.10090192       0.00000000 NULL
P        1.84648723       2.82967733       4.69934108       0.00000000 NULL
P        3.69403985       6.07800310       1.12872801       0.00000000 NULL
9
Lattice="5.561503232542102 0.0 0.0 0.0 6.828043616204488 5.073896775308539e-16 0.0 -3.4140218081022446 5.91325922978125" Properties=species:S:1:pos:R:3:initial_magmoms:R:1:castep_labels:S:1 n_minim_iter=6 pbc="T T T"
P        0.25668980       0.10946302       3.34163228       0.00000000 NULL
P        2.11052421      -0.57481487       4.14764534       0.00000000 NULL
P        3.96435862       0.46535186       4.33724085       0.00000000 NULL
P        0.26619886      -0.88496471       1.51883237       0.00000000 NULL
P        2.12003327      -1.65619204       5.92024497       0.00000000 NULL
P        3.97386768       2.54115675       4.38744113       0.00000000 NULL
P       -0.00015852       1.35170648       0.10429795       0.00000000 NULL
P        1.85367589       2.82849324       4.69049811       0.00000000 NULL
P        3.70751030       6.06186571       1.11846318       0.00000000 NULL
9
Lattice="5.668805384359463 0.0 0.0 0.0 6.709109764978202 -1.2063674673145648e-15 0.0 -3.3545548824891003 5.810259493249368" Properties=species:S:1:pos:R:3:initial_magmoms:R:1:castep_labels:S:1 n_minim_iter=7 pbc="T T T"
P        0.26982321       0.12768027       3.28490441       0.00000000 NULL
P        2.15942500      -0.57358435       4.05723293       0.00000000 NULL
P        4.04902680       0.44590408       4.27838165       0.00000000 NULL
P        0.25798501      -0.85671062       1.44531895       0.00000000 NULL
P        2.14758681      -1.67451665       5.82953319       0.00000000 NULL
P        4.03718860       2.53122727       4.34566686       0.00000000 NULL
P        0.00500734       1.29321353       0.12319609       0.00000000 NULL
P        1.89460913       2.81463906       4.62870569       0.00000000 NULL
P        3.78421093       5.95581207       1.05835772       0.00000000 NULL
9
Lattice="6.243810100015956 0.0 0.0 0.0 6.411017592413034 1.507408532463871e-15 0.0 -3.2055087962065185 5.552104099138636" Properties=species:S:1:pos:R:3:initial_magmoms:R:1:castep_labels:S:1 n_minim_iter=8 pbc="T T T"
P        0.33735269       0.19969200       3.16728231       0.00000000 NULL
P        2.41862272      -0.56240786       3.79552460       0.00000000 NULL
P        4.49989276       0.36271586       4.14140129       0.00000000 NULL
P        0.22132475      -0.76770332       1.20473621       0.00000000 NULL
P        2.30259478      -1.77832497       5.61458657       0.00000000 NULL
P        4.38386481       2.54602829       4.28488542       0.00000000 NULL
P        0.02818332       1.11077178       0.20298211       0.00000000 NULL
P        2.10945336       2.82591057       4.48865647       0.00000000 NULL
P        4.19072339       5.67984405       0.86046552       0.00000000 NULL
9
Lattice="5.553078209831682 0.0 0.0 0.0 7.3584379380048865 -9.333716335510587e-17 0.0 -3.6792189690024424 6.372594186483413" Properties=species:S:1:pos:R:3:initial_magmoms:R:1:castep_labels:S:1 n_minim_iter=9 pbc="T T T"
P        0.30695467       0.23168349       3.64097379       0.00000000 NULL
P        2.15798074      -0.64188492       4.35146351       0.00000000 NULL
P        4.00900681       0.41020143       4.75275108       0.00000000 NULL
P        0.16389339      -0.91929845       1.41148587       0.00000000 NULL
P        2.01491946      -1.99718712       6.46298707       0.00000000 NULL
P        3.86594553       2.91648558       4.87071544       0.00000000 NULL
P        0.05109026       1.31920421       0.22449811       0.00000000 NULL
P        1.90211633       3.21403793       5.11788077       0.00000000 NULL
P        3.75314240       6.50441477       1.03021531       0.00000000 NULL
9
Lattice="6.1840028375670535 0.0 0.0 0.0 6.697269767330875 1.0845270947316936e-15 0.0 -3.348634883665437 5.8000057545060315" Properties=species:S:1:pos:R:3:initial_magmoms:R:1:castep_labels:S:1 n_minim_iter=10 pbc="T T T"
P        0.34222483       0.20920807       3.29446986       0.00000000 NULL
P        2.40355911      -0.60014433       3.97159133       0.00000000 NULL
P        4.46489339       0.39093626       4.33395033       0.00000000 NULL
P        0.20952247      -0.81810538       1.29498703       0.00000000 NULL
P        2.27085675      -1.81809053       5.86101229       0.00000000 NULL
P        4.33219103       2.63619592       4.44401220       0.00000000 NULL
P        0.02949214       1.18659033       0.21262144       0.00000000 NULL
P        2.09082642       2.93947529       4.66607767       0.00000000 NULL
P        4.15216069       5.91983904       0.92130665       0.00000000 NULL
9
Lattice="5.883154518770124 0.0 0.0 0.0 6.483095186714715 1.222757963280584e-15 0.0 -3.241547593357357 5.614525126847559" Properties=species:S:1:pos:R:3:initial_magmoms:R:1:castep_labels:S:1 n_minim_iter=11 pbc="T T T"
P        0.32611252       0.20129116       3.18764809       0.00000000 NULL
P        2.28716403      -0.58160894       3.84637783       0.00000000 NULL
P        4.24821553       0.38031779       4.19502434       0.00000000 NULL
P        0.19142349      -0.78618098       1.25483750       0.00000000 NULL
P        2.15247500      -1.76173595       5.66795908       0.00000000 NULL
P        4.11352651       2.54791694       4.30625368       0.00000000 NULL
P        0.03542644       1.14643792       0.20815836       0.00000000 NULL
P        1.99647795       2.84859906       4.51760159       0.00000000 NULL
P        3.95752945       5.72960580       0.88876519       0.00000000 NULL
9
Lattice="6.04839577007806 0.0 0.0 0.0 6.582852207256786 4.648130103203338e-16 0.0 -3.291426103628392 5.7009172408428395" Properties=species:S:1:pos:R:3:initial_magmoms:R:1:castep_labels:S:1 n_minim_iter=12 pbc="T T T"
P        0.33608023       0.20566918       3.23648137       0.00000000 NULL
P        2.35221215      -0.59138561       3.90456182       0.00000000 NULL
P        4.36834408       0.38571643       4.26079129       0.00000000 NULL
P        0.19919958      -0.80000436       1.27564011       0.00000000 NULL
P        2.21533151      -1.78668718       5.75592129       0.00000000 NULL
P        4.23146343       2.58669155       4.37027308       0.00000000 NULL
P        0.03321380       1.16621903       0.21209502       0.00000000 NULL
P        2.04934572       2.89199627       4.58489443       0.00000000 NULL
P        4.06547764       5.81606302       0.90392780       0.00000000 NULL
