16
Lattice="5.196222452145024 0.0 0.0 0.0 5.120070563611836 0.0 0.0 0.0 10.259396864816116" Properties=species:S:1:pos:R:3:initial_magmoms:R:1:castep_labels:S:1:forces:R:3 n_minim_iter=1 energy=-88.541053007046 stress="0.0029729821668693568 -0.0 3.663654269814853e-08 -0.0 -0.006575709866177189 0.0 3.663654269814853e-08 0.0 -0.0006275107033338879" free_energy=-88.541053007046 pbc="T T T"
P        2.85189033       1.12757613       3.66508588       0.00000000 NULL      -0.02383600       0.04453600       0.03409900
P        2.34433213       3.68761142       6.59431099       0.00000000 NULL       0.02383600       0.04453900      -0.03409900
P        5.45000155       1.12757613       1.46461256       0.00000000 NULL      -0.02383500       0.04453600      -0.03410000
P       -0.25377910       3.68761142       8.79478431       0.00000000 NULL       0.02383500       0.04454000       0.03410000
P        5.31062105       3.99163604       6.58722934       0.00000000 NULL       0.04761800      -0.07215800      -0.02089400
P       -0.11439860       1.43160076       3.67216753       0.00000000 NULL      -0.04761800      -0.07216200       0.02089400
P        2.71250982       3.99163604       8.80186596       0.00000000 NULL       0.04761700      -0.07215800       0.02089400
P        2.48371263       1.43160076       1.45753091       0.00000000 NULL      -0.04761700      -0.07216200      -0.02089400
P        2.72032009       1.12155088       8.80246275       0.00000000 NULL       0.06922100       0.11011700       0.00323800
P        2.47590236       3.68158616       1.45693411       0.00000000 NULL      -0.06922100       0.11012000      -0.00323800
P        5.31843132       1.12155088       6.58663255       0.00000000 NULL       0.06922200       0.11011700      -0.00323800
P       -0.12220887       3.68158616       3.67276432       0.00000000 NULL      -0.06922200       0.11012000       0.00323800
P        0.23929532       3.99526206       1.46201840       0.00000000 NULL       0.05695800      -0.08249500      -0.01208600
P        4.95692713       1.43522677       8.79737847       0.00000000 NULL      -0.05695800      -0.08249800       0.01208600
P        2.83740654       3.99526206       3.66768003       0.00000000 NULL       0.05695700      -0.08249500       0.01208600
P        2.35881591       1.43522677       6.59171683       0.00000000 NULL      -0.05695700      -0.08249800      -0.01208600
16
Lattice="5.187635544683627 0.0 0.0 0.0 5.138834718793642 0.0 0.0 0.0 10.262978939255825" Properties=species:S:1:pos:R:3:initial_magmoms:R:1:castep_labels:S:1:forces:R:3 n_minim_iter=2 energy=-88.545159670395 stress="0.0009389437807881837 -0.0 -3.6550421611903296e-08 -0.0 0.0005678107997409176 0.0 -3.6550421611903296e-08 0.0 0.00028926003663660267" free_energy=-88.545159670395 pbc="T T T"
P        2.84712899       1.13179961       3.66643507       0.00000000 NULL      -0.04286200      -0.00869300       0.02480300
P        2.34050655       3.70121697       6.59654387       0.00000000 NULL       0.04286200      -0.00869100      -0.02480300
P        5.44094677       1.13179961       1.46505440       0.00000000 NULL      -0.04286300      -0.00869300      -0.02480300
P       -0.25331122       3.70121697       8.79792454       0.00000000 NULL       0.04286300      -0.00869100       0.02480300
P        5.30194198       4.00611707       6.58948667       0.00000000 NULL       0.02703100      -0.01726500      -0.01146800
P       -0.11430644       1.43669971       3.67349227       0.00000000 NULL      -0.02703100      -0.01726700       0.01146800
P        2.70812421       4.00611707       8.80498174       0.00000000 NULL       0.02703200      -0.01726500       0.01146800
P        2.47951133       1.43669971       1.45799720       0.00000000 NULL      -0.02703200      -0.01726700      -0.01146800
P        2.71596553       1.12588643       8.80554274       0.00000000 NULL       0.04802800       0.05482400      -0.00565500
P        2.47167001       3.69530379       1.45743620       0.00000000 NULL      -0.04802800       0.05482700       0.00565500
P        5.30978331       1.12588643       6.58892567       0.00000000 NULL       0.04802800       0.05482400       0.00565500
P       -0.12214776       3.69530379       3.67405327       0.00000000 NULL      -0.04802800       0.05482600      -0.00565500
P        0.23901577       4.00973523       1.46250422       0.00000000 NULL       0.03767700      -0.02886700      -0.00312400
P        4.94861977       1.44031787       8.80047472       0.00000000 NULL      -0.03767700      -0.02886900       0.00312400
P        2.83283354       4.00973523       3.66898525       0.00000000 NULL       0.03767800      -0.02886700       0.00312400
P        2.35480200       1.44031787       6.59399369       0.00000000 NULL      -0.03767800      -0.02886900      -0.00312400
16
Lattice="5.183952323338198 0.0 0.0 0.0 5.137716098106379 0.0 0.0 0.0 10.261134161678399" Properties=species:S:1:pos:R:3:initial_magmoms:R:1:castep_labels:S:1:forces:R:3 n_minim_iter=3 energy=-88.545346907362 stress="-0.0004035980765798907 -0.0 0.0 -0.0 1.2623874562109002e-05 -0.0 0.0 -0.0 -0.00018858970867568058" free_energy=-88.545346907362 pbc="T T T"
P        2.84499980       1.13153574       3.66584053       0.00000000 NULL      -0.05315400      -0.00660800       0.02923700
P        2.33895253       3.70039379       6.59529363       0.00000000 NULL       0.05315400      -0.00660800      -0.02923700
P        5.43697596       1.13153574       1.46472655       0.00000000 NULL      -0.05315300      -0.00660800      -0.02923700
P       -0.25302363       3.70039379       8.79640761       0.00000000 NULL       0.05315300      -0.00660800       0.02923800
P        5.29824856       4.00519533       6.58827191       0.00000000 NULL       0.01705500      -0.01842300      -0.01608700
P       -0.11429624       1.43633728       3.67286225       0.00000000 NULL      -0.01705500      -0.01842200       0.01608700
P        2.70627240       4.00519533       8.80342934       0.00000000 NULL       0.01705400      -0.01842200       0.01608700
P        2.47767992       1.43633728       1.45770483       0.00000000 NULL      -0.01705400      -0.01842200      -0.01608700
P        2.71416185       1.12578808       8.80394625       0.00000000 NULL       0.03667800       0.05514900      -0.00056000
P        2.46979047       3.69464613       1.45718791       0.00000000 NULL      -0.03667800       0.05514800       0.00056000
P        5.30613801       1.12578808       6.58775499       0.00000000 NULL       0.03667900       0.05514900       0.00056000
P       -0.12218569       3.69464613       3.67337917       0.00000000 NULL      -0.03667900       0.05514800      -0.00056000
P        0.23894410       4.00878285       1.46223249       0.00000000 NULL       0.02558600      -0.03011900      -0.00811900
P        4.94500822       1.43992480       8.79890167       0.00000000 NULL      -0.02558600      -0.03011800       0.00811900
P        2.83092027       4.00878285       3.66833459       0.00000000 NULL       0.02558500      -0.03011900       0.00811900
P        2.35303206       1.43992480       6.59279957       0.00000000 NULL      -0.02558500      -0.03011800      -0.00811900
16
Lattice="5.184630536295717 0.0 0.0 0.0 5.131939807875713 0.0 0.0 0.0 10.27540086818631" Properties=species:S:1:pos:R:3:initial_magmoms:R:1:castep_labels:S:1:forces:R:3 n_minim_iter=4 energy=-88.546915002249 stress="-0.0005977326849618721 -0.0 -3.657647074788105e-08 -0.0 -0.00039714731938049236 -0.0 -3.657647074788105e-08 -0.0 0.0024602797283854705" free_energy=-88.546915002249 pbc="T T T"
P        2.84184013       1.12980834       3.67293679       0.00000000 NULL      -0.03957300       0.01297800      -0.00924300
P        2.34279040       3.69577824       6.60246407       0.00000000 NULL       0.03957300       0.01297900       0.00924300
P        5.43415540       1.12980834       1.46476364       0.00000000 NULL      -0.03957400       0.01297800       0.00924300
P       -0.24952487       3.69577824       8.81063723       0.00000000 NULL       0.03957300       0.01297900      -0.00924300
P        5.30035883       3.99934379       6.59636954       0.00000000 NULL       0.02496700      -0.01173600       0.01710100
P       -0.11572830       1.43337388       3.67903133       0.00000000 NULL      -0.02496700      -0.01173800      -0.01710100
P        2.70804357       3.99934379       8.81673176       0.00000000 NULL       0.02496700      -0.01173600      -0.01710100
P        2.47658697       1.43337388       1.45866911       0.00000000 NULL      -0.02496700      -0.01173800       0.01710100
P        2.71734566       1.12850508       8.81605787       0.00000000 NULL      -0.00293300       0.02617800      -0.01749500
P        2.46728488       3.69447498       1.45934300       0.00000000 NULL       0.00293300       0.02618000       0.01749500
P        5.30966093       1.12850508       6.59704344       0.00000000 NULL      -0.00293400       0.02617800       0.01749500
P       -0.12503039       3.69447498       3.67835743       0.00000000 NULL       0.00293400       0.02618000      -0.01749500
P        0.24103372       4.00209683       1.46377647       0.00000000 NULL      -0.01972200      -0.02742000       0.01322400
P        4.94359681       1.43612693       8.81162439       0.00000000 NULL       0.01972200      -0.02742100      -0.01322400
P        2.83334899       4.00209683       3.67392396       0.00000000 NULL      -0.01972100      -0.02742000      -0.01322400
P        2.35128154       1.43612693       6.60147691       0.00000000 NULL       0.01972100      -0.02742100       0.01322400
16
Lattice="5.1893528273937335 0.0 0.0 0.0 5.130694904436654 0.0 0.0 0.0 10.255063454190568" Properties=species:S:1:pos:R:3:initial_magmoms:R:1:castep_labels:S:1:forces:R:3 n_minim_iter=5 energy=-88.548092640906 stress="4.1056116541722515e-05 -0.0 -0.0 -0.0 5.435082689377005e-05 -0.0 -0.0 -0.0 3.2229600853448545e-06" free_energy=-88.548092640906 pbc="T T T"
P        2.84163629       1.12925923       3.66710086       0.00000000 NULL      -0.01155200       0.01606800       0.00286600
P        2.34771654       3.69460668       6.58796259       0.00000000 NULL       0.01155200       0.01606900      -0.00286600
P        5.43631270       1.12925923       1.46043087       0.00000000 NULL      -0.01155300       0.01606800      -0.00286500
P       -0.24695988       3.69460668       8.79463259       0.00000000 NULL       0.01155300       0.01606800       0.00286500
P        5.30634531       3.99732223       6.58260656       0.00000000 NULL       0.04919700       0.00393500       0.00192700
P       -0.11699249       1.43197478       3.67245690       0.00000000 NULL      -0.04919700       0.00393500      -0.00192700
P        2.71166890       3.99732223       8.79998863       0.00000000 NULL       0.04919800       0.00393500      -0.00192700
P        2.47768393       1.43197478       1.45507483       0.00000000 NULL      -0.04919800       0.00393400       0.00192700
P        2.72189702       1.13129387       8.79843584       0.00000000 NULL      -0.01385800      -0.00631600       0.00952200
P        2.46745581       3.69664132       1.45662762       0.00000000 NULL       0.01385800      -0.00631600      -0.00952200
P        5.31657344       1.13129387       6.58415934       0.00000000 NULL      -0.01385900      -0.00631600      -0.00952200
P       -0.12722061       3.69664132       3.67090411       0.00000000 NULL       0.01385900      -0.00631600       0.00952200
P        0.24268393       3.99938988       1.46057721       0.00000000 NULL      -0.03553000      -0.01368700      -0.01132900
P        4.94666890       1.43404243       8.79448624       0.00000000 NULL       0.03553000      -0.01368700       0.01132900
P        2.83736034       3.99938988       3.66695452       0.00000000 NULL      -0.03553000      -0.01368700       0.01133000
P        2.35199248       1.43404243       6.58810894       0.00000000 NULL       0.03553000      -0.01368700      -0.01133000
16
Lattice="5.1910478361574235 0.0 0.0 0.0 5.121873226762909 0.0 0.0 0.0 10.244422707099076" Properties=species:S:1:pos:R:3:initial_magmoms:R:1:castep_labels:S:1:forces:R:3 n_minim_iter=6 energy=-88.550361525973 stress="-4.589217702236455e-06 0.0 -0.0 0.0 -0.0001313984812504342 0.0 -0.0 0.0 -7.045367016473405e-05" free_energy=-88.550361525973 pbc="T T T"
P        2.83460444       1.13053546       3.66677058       0.00000000 NULL      -0.04615400      -0.00864600      -0.01109300
P        2.35644340       3.69147207       6.57765213       0.00000000 NULL       0.04615400      -0.00864700       0.01109300
P        5.43012835       1.13053546       1.45544078       0.00000000 NULL      -0.04615500      -0.00864600       0.01109300
P       -0.23908052       3.69147207       8.78898193       0.00000000 NULL       0.04615500      -0.00864700      -0.01109300
P        5.32155075       3.98932805       6.57477843       0.00000000 NULL      -0.00746000       0.00130300       0.00811200
P       -0.13050292       1.42839144       3.66964427       0.00000000 NULL       0.00746000       0.00130400      -0.00811100
P        2.72602684       3.98932805       8.79185563       0.00000000 NULL      -0.00746000       0.00130300      -0.00811100
P        2.46502100       1.42839144       1.45256708       0.00000000 NULL       0.00746000       0.00130400       0.00811100
P        2.72353802       1.13372733       8.79126307       0.00000000 NULL       0.02362600      -0.02125500       0.00394800
P        2.46750982       3.69466394       1.45315964       0.00000000 NULL      -0.02362600      -0.02125700      -0.00394800
P        5.31906194       1.13372733       6.57537099       0.00000000 NULL       0.02362600      -0.02125500      -0.00394800
P       -0.12801410       3.69466394       3.66905172       0.00000000 NULL      -0.02362600      -0.02125700       0.00394800
P        0.23731430       3.98603807       1.45578894       0.00000000 NULL      -0.01734900       0.02859800       0.00060500
P        4.95373354       1.42510146       8.78863377       0.00000000 NULL       0.01734900       0.02860000      -0.00060500
P        2.83283821       3.98603807       3.66642242       0.00000000 NULL      -0.01734900       0.02859800      -0.00060500
P        2.35820962       1.42510146       6.57800029       0.00000000 NULL       0.01734900       0.02860000       0.00060500
16
Lattice="5.175716869116644 0.0 0.0 0.0 5.120176596897523 0.0 0.0 0.0 10.23553697693519" Properties=species:S:1:pos:R:3:initial_magmoms:R:1:castep_labels:S:1:forces:R:3 n_minim_iter=7 energy=-88.553471224996 stress="-0.0004360957990183722 -0.0 -0.0 -0.0 -0.0004177730657262823 -0.0 -0.0 -0.0 -0.0004535705989790373" free_energy=-88.553471224996 pbc="T T T"
P        2.78647807       1.13229298       3.66515585       0.00000000 NULL       0.04485100      -0.01298200       0.03183300
P        2.38923880       3.69238128       6.57038113       0.00000000 NULL      -0.04485100      -0.01298000      -0.03183300
P        5.37433650       1.13229298       1.45261264       0.00000000 NULL       0.04485100      -0.01298200      -0.03183300
P       -0.19861963       3.69238128       8.78292434       0.00000000 NULL      -0.04485100      -0.01298000       0.03183300
P        5.33058612       3.98658709       6.57127578       0.00000000 NULL       0.02429700      -0.00043700      -0.04184500
P       -0.15486925       1.42649879       3.66426119       0.00000000 NULL      -0.02429800      -0.00044000       0.04184500
P        2.74272769       3.98658709       8.78202968       0.00000000 NULL       0.02429800      -0.00043700       0.04184500
P        2.43298918       1.42649879       1.45350730       0.00000000 NULL      -0.02429800      -0.00044000      -0.04184500
P        2.72896169       1.13174113       8.78944088       0.00000000 NULL       0.02974100      -0.00131500      -0.05418600
P        2.44675517       3.69182943       1.44609610       0.00000000 NULL      -0.02974100      -0.00131200       0.05418600
P        5.31682013       1.13174113       6.56386459       0.00000000 NULL       0.02974000      -0.00131500       0.05418600
P       -0.14110326       3.69182943       3.67167239       0.00000000 NULL      -0.02974000      -0.00131200      -0.05418600
P        0.21663487       3.98561572       1.44820048       0.00000000 NULL      -0.03901000       0.01473400       0.05725400
P        4.95908200       1.42552742       8.78733650       0.00000000 NULL       0.03901000       0.01473100      -0.05725400
P        2.80449331       3.98561572       3.66956801       0.00000000 NULL      -0.03901000       0.01473400      -0.05725400
P        2.37122356       1.42552742       6.56596897       0.00000000 NULL       0.03901000       0.01473100       0.05725400
16
Lattice="5.172880000397321 0.0 0.0 0.0 5.122048819109077 0.0 0.0 0.0 10.236132506506886" Properties=species:S:1:pos:R:3:initial_magmoms:R:1:castep_labels:S:1:forces:R:3 n_minim_iter=8 energy=-88.555996476485 stress="-0.0005646833056387909 0.0 -0.0 0.0 -0.0005127685753521818 0.0 -0.0 0.0 -0.0005236824675147076" free_energy=-88.555996476485 pbc="T T T"
P        2.76976979       1.13175006       3.66914980       0.00000000 NULL       0.04532700       0.00093200      -0.02057400
P        2.40311021       3.69277447       6.56698271       0.00000000 NULL      -0.04532700       0.00093300       0.02057300
P        5.35620979       1.13175006       1.44891646       0.00000000 NULL       0.04532700       0.00093200       0.02057300
P       -0.18332979       3.69277447       8.78721605       0.00000000 NULL      -0.04532700       0.00093300      -0.02057300
P        5.34231322       3.98739505       6.56858112       0.00000000 NULL       0.00676600       0.00864200       0.01146900
P       -0.16943322       1.42637064       3.66755138       0.00000000 NULL      -0.00676600       0.00864100      -0.01146800
P        2.75587322       3.98739505       8.78561764       0.00000000 NULL       0.00676600       0.00864200      -0.01146800
P        2.41700678       1.42637064       1.45051487       0.00000000 NULL      -0.00676600       0.00864100       0.01146800
P        2.73840145       1.13100802       8.78623148       0.00000000 NULL       0.04648500       0.00066000       0.00112400
P        2.43447855       3.69203243       1.44990103       0.00000000 NULL      -0.04648500       0.00066200      -0.00112400
P        5.32484145       1.13100802       6.56796728       0.00000000 NULL       0.04648500       0.00066000      -0.00112400
P       -0.15196145       3.69203243       3.66816522       0.00000000 NULL      -0.04648500       0.00066200       0.00112400
P        0.20284761       3.98982662       1.45214501       0.00000000 NULL      -0.01833500      -0.01023400      -0.00209700
P        4.97003239       1.42880221       8.78398750       0.00000000 NULL       0.01833500      -0.01023500       0.00209700
P        2.78928761       3.98982662       3.66592124       0.00000000 NULL      -0.01833500      -0.01023400       0.00209700
P        2.38359239       1.42880221       6.57021126       0.00000000 NULL       0.01833500      -0.01023500      -0.00209700
16
Lattice="5.193053711452113 0.0 0.0 0.0 5.124559700242066 0.0 0.0 0.0 10.247110528816975" Properties=species:S:1:pos:R:3:initial_magmoms:R:1:castep_labels:S:1:forces:R:3 n_minim_iter=9 energy=-88.558919571465 stress="-0.00032141863973056937 0.0 -0.0 0.0 -0.0005176435274885017 -0.0 -0.0 -0.0 -0.0002833911292456178" free_energy=-88.558919571465 pbc="T T T"
P        2.76980268       1.13063749       3.66654901       0.00000000 NULL      -0.00662400      -0.00125300       0.02355400
P        2.42325103       3.69291734       6.58056152       0.00000000 NULL       0.00662400      -0.00125100      -0.02355400
P        5.36632954       1.13063749       1.45700626       0.00000000 NULL      -0.00662500      -0.00125300      -0.02355500
P       -0.17327583       3.69291734       8.79010427       0.00000000 NULL       0.00662500      -0.00125100       0.02355500
P        5.38979087       3.99229655       6.58048889       0.00000000 NULL      -0.02701400      -0.00401300      -0.01920300
P       -0.19673716       1.43001670       3.66662164       0.00000000 NULL       0.02701400      -0.00401600       0.01920300
P        2.79326401       3.99229655       8.79017690       0.00000000 NULL      -0.02701400      -0.00401400       0.01920400
P        2.39978970       1.43001670       1.45693362       0.00000000 NULL       0.02701400      -0.00401600      -0.01920400
P        2.78892087       1.13082125       8.79245001       0.00000000 NULL      -0.02173000       0.00007800      -0.00651400
P        2.40413284       3.69310110       1.45466052       0.00000000 NULL       0.02173000       0.00008000       0.00651400
P        5.38544773       1.13082125       6.57821578       0.00000000 NULL      -0.02173100       0.00007800       0.00651500
P       -0.19239402       3.69310110       3.66889475       0.00000000 NULL       0.02173100       0.00008000      -0.00651500
P        0.17827881       3.99124414       1.45629403       0.00000000 NULL      -0.02732700       0.00518900      -0.00334100
P        5.01477490       1.42896429       8.79081650       0.00000000 NULL       0.02732700       0.00518600       0.00334100
P        2.77480566       3.99124414       3.66726124       0.00000000 NULL      -0.02732700       0.00518900       0.00334100
P        2.41824805       1.42896429       6.57984929       0.00000000 NULL       0.02732700       0.00518600      -0.00334100
16
Lattice="5.186899730564262 0.0 0.0 0.0 5.124073861236802 0.0 0.0 0.0 10.243427573854689" Properties=species:S:1:pos:R:3:initial_magmoms:R:1:castep_labels:S:1:forces:R:3 n_minim_iter=10 energy=-88.559664520853 stress="-0.00022714380339884722 -0.0 -0.0 -0.0 -0.0003745448517558288 0.0 -0.0 0.0 -0.00023944865044584168" free_energy=-88.559664520853 pbc="T T T"
P        2.76970870       1.12984779       3.66748156       0.00000000 NULL      -0.00626800       0.00760300       0.00837400
P        2.41719103       3.69188472       6.57594601       0.00000000 NULL       0.00626800       0.00760400      -0.00837400
P        5.36315856       1.12984779       1.45423222       0.00000000 NULL      -0.00626900       0.00760300      -0.00837400
P       -0.17625883       3.69188472       8.78919535       0.00000000 NULL       0.00626900       0.00760400       0.00837400
P        5.37587253       3.99222750       6.57679577       0.00000000 NULL      -0.00567700      -0.00715200      -0.01049400
P       -0.18897280       1.43019057       3.66663181       0.00000000 NULL       0.00567700      -0.00715300       0.01049400
P        2.78242267       3.99222750       8.78834559       0.00000000 NULL      -0.00567600      -0.00715200       0.01049500
P        2.40447706       1.43019057       1.45508198       0.00000000 NULL       0.00567600      -0.00715300      -0.01049500
P        2.78448728       1.13213628       8.78889677       0.00000000 NULL      -0.01243400      -0.00828100      -0.00130500
P        2.40241245       3.69417321       1.45453080       0.00000000 NULL       0.01243400      -0.00828000       0.00130500
P        5.37793714       1.13213628       6.57624459       0.00000000 NULL      -0.01243500      -0.00828100       0.00130500
P       -0.19103741       3.69417321       3.66718299       0.00000000 NULL       0.01243500      -0.00828000      -0.00130500
P        0.17378866       3.98981651       1.45292261       0.00000000 NULL      -0.00032100       0.00783000       0.00611200
P        5.01311107       1.42777957       8.79050496       0.00000000 NULL       0.00032100       0.00782900      -0.00611200
P        2.76723853       3.98981651       3.66879117       0.00000000 NULL      -0.00032100       0.00783000      -0.00611200
P        2.41966120       1.42777957       6.57463640       0.00000000 NULL       0.00032100       0.00782900       0.00611200
16
Lattice="5.186326112574641 0.0 0.0 0.0 5.123583358838211 0.0 0.0 0.0 10.243043217500396" Properties=species:S:1:pos:R:3:initial_magmoms:R:1:castep_labels:S:1:forces:R:3 n_minim_iter=11 energy=-88.559888977293 stress="-0.00010860300592093895 0.0 0.0 0.0 -0.00019398642464903845 -0.0 0.0 -0.0 -0.00011653881420203598" free_energy=-88.559888977293 pbc="T T T"
P        2.77261657       1.13199941       3.66781962       0.00000000 NULL      -0.00279200      -0.01045100       0.00090300
P        2.41370955       3.69379109       6.57522360       0.00000000 NULL       0.00279200      -0.01045400      -0.00090300
P        5.36577962       1.13199941       1.45370199       0.00000000 NULL      -0.00279100      -0.01045100      -0.00090300
P       -0.17945351       3.69379109       8.78934122       0.00000000 NULL       0.00279200      -0.01045400       0.00090300
P        5.37069792       3.99039041       6.57541435       0.00000000 NULL       0.00074900      -0.00070800      -0.00084600
P       -0.18437181       1.42859873       3.66762887       0.00000000 NULL      -0.00074900      -0.00070600       0.00084600
P        2.77753487       3.99039041       8.78915048       0.00000000 NULL       0.00074900      -0.00070800       0.00084600
P        2.40879125       1.42859873       1.45389274       0.00000000 NULL      -0.00074900      -0.00070600      -0.00084600
P        2.78018711       1.13060974       8.78894881       0.00000000 NULL      -0.01136600       0.00389100      -0.00006300
P        2.40613901       3.69240142       1.45409441       0.00000000 NULL       0.01136600       0.00388800       0.00006300
P        5.37335016       1.13060974       6.57561601       0.00000000 NULL      -0.01136500       0.00389100       0.00006300
P       -0.18702405       3.69240142       3.66742720       0.00000000 NULL       0.01136500       0.00388800      -0.00006200
P        0.17762975       3.99004790       1.45337919       0.00000000 NULL      -0.00234200       0.00726900       0.00151200
P        5.00869636       1.42825622       8.78966403       0.00000000 NULL       0.00234200       0.00727100      -0.00151200
P        2.77079281       3.99004790       3.66814242       0.00000000 NULL      -0.00234200       0.00726900      -0.00151200
P        2.41553330       1.42825622       6.57490080       0.00000000 NULL       0.00234200       0.00727100       0.00151200
16
Lattice="5.185892882720531 0.0 0.0 0.0 5.124481892026476 0.0 0.0 0.0 10.244046095494358" Properties=species:S:1:pos:R:3:initial_magmoms:R:1:castep_labels:S:1:forces:R:3 n_minim_iter=12 energy=-88.559982946366 stress="-1.5538007389476627e-05 -0.0 -0.0 -0.0 -5.542991288586343e-05 -0.0 -0.0 -0.0 -2.4206966594952948e-05" free_energy=-88.559982946366 pbc="T T T"
P        2.77436784       1.13134886       3.66783749       0.00000000 NULL      -0.00390100      -0.00118800       0.00181900
P        2.41152504       3.69358980       6.57620860       0.00000000 NULL       0.00390100      -0.00118700      -0.00181900
P        5.36731429       1.13134886       1.45418555       0.00000000 NULL      -0.00390100      -0.00118800      -0.00181900
P       -0.18142140       3.69358980       8.78986054       0.00000000 NULL       0.00390100      -0.00118700       0.00181900
P        5.36838156       3.99056842       6.57606576       0.00000000 NULL      -0.00143600       0.00811100      -0.00126400
P       -0.18248868       1.42832748       3.66798033       0.00000000 NULL       0.00143600       0.00811000       0.00126400
P        2.77543512       3.99056842       8.79000338       0.00000000 NULL      -0.00143600       0.00811100       0.00126400
P        2.41045777       1.42832748       1.45404272       0.00000000 NULL       0.00143600       0.00811000      -0.00126400
P        2.77654758       1.13109093       8.79012492       0.00000000 NULL      -0.00293400      -0.00279200      -0.00188300
P        2.40934530       3.69333187       1.45392117       0.00000000 NULL       0.00293400      -0.00279100       0.00188300
P        5.36949402       1.13109093       6.57594422       0.00000000 NULL      -0.00293400      -0.00279200       0.00188300
P       -0.18360114       3.69333187       3.66810187       0.00000000 NULL       0.00293400      -0.00279100      -0.00188300
P        0.18011183       3.99183560       1.45389512       0.00000000 NULL       0.00142100      -0.00413100       0.00154000
P        5.00578105       1.42959466       8.79015098       0.00000000 NULL      -0.00142100      -0.00413200      -0.00154000
P        2.77305827       3.99183560       3.66812793       0.00000000 NULL       0.00142100      -0.00413100      -0.00154000
P        2.41283461       1.42959466       6.57591817       0.00000000 NULL      -0.00142100      -0.00413200       0.00154000
