13
Lattice="3.8910299999999993 4.615293534957333e-16 1.2515703188492163e-15 1.3263446496968725 6.188062249389585 -1.7136819971885744e-15 1.6462004106629933 1.763160706237053 12.135615349573934" Properties=species:S:1:pos:R:3:initial_magmoms:R:1:castep_labels:S:1 n_minim_iter=1 pbc="T T T"
P        2.57533669       6.22863753       0.81662376       0.00000000 NULL
P        1.13245445       2.84350332       2.80075682       0.00000000 NULL
P        2.18411887       3.56946237      11.46279135       0.00000000 NULL
P        3.49604075       6.01806259      10.56232748       0.00000000 NULL
P        0.92694873       3.15607618       0.79092174       0.00000000 NULL
P        2.66486477       1.56671970       8.00351478       0.00000000 NULL
P        4.20351492       4.40444501      11.50896615       0.00000000 NULL
P        1.31779334       1.95304983       5.16277960       0.00000000 NULL
P        2.73895381       1.81805951       1.79191220       0.00000000 NULL
P        1.85258881       3.96377251       5.53895576       0.00000000 NULL
P        2.64949632       4.22113730       0.98407705       0.00000000 NULL
P        4.13469167       5.83370224       8.66376992       0.00000000 NULL
P        2.49177698       5.34081632       7.61783400       0.00000000 NULL
13
Lattice="3.9000264284613575 3.3302196430183846e-05 0.0002043229601081334 1.3294642454904433 6.201213242333897 -0.0009318706913362552 1.650658928382653 1.7649545534945477 12.16618446586768" Properties=species:S:1:pos:R:3:initial_magmoms:R:1:castep_labels:S:1 n_minim_iter=2 pbc="T T T"
P        2.58137425       6.24202390       0.81784222       0.00000000 NULL
P        1.13519337       2.84906362       2.80785495       0.00000000 NULL
P        2.18988305       3.57478582      11.49109274       0.00000000 NULL
P        3.50456629       6.02946777      10.58832598       0.00000000 NULL
P        0.92898640       3.16285805       0.79252497       0.00000000 NULL
P        2.67143218       1.56889364       8.02365729       0.00000000 NULL
P        4.21384574       4.41186208      11.53740544       0.00000000 NULL
P        1.32112027       1.95638920       5.17562417       0.00000000 NULL
P        2.74542503       1.82133360       1.79651969       0.00000000 NULL
P        1.85721970       3.97133331       5.55243516       0.00000000 NULL
P        2.65593069       4.23010176       0.98616800       0.00000000 NULL
P        4.14507749       5.84463042       8.68490412       0.00000000 NULL
P        2.49777603       5.35084298       7.63627402       0.00000000 NULL
13
Lattice="4.093888507540872 0.0007492408656016278 0.00416630617257655 1.3966850596239284 6.4807439810918845 -0.02257519380344323 1.7453585974703356 1.799740419299105 12.8272078677972" Properties=species:S:1:pos:R:3:initial_magmoms:R:1:castep_labels:S:1 n_minim_iter=3 pbc="T T T"
P        2.71139063       6.52670260       0.84256196       0.00000000 NULL
P        1.19389080       2.96633876       2.96102489       0.00000000 NULL
P        2.31289196       3.68432584      12.10239679       0.00000000 NULL
P        3.68697827       6.26926271      11.14920791       0.00000000 NULL
P        0.97256918       3.30697229       0.82655250       0.00000000 NULL
P        2.81202620       1.61289818       8.45896066       0.00000000 NULL
P        4.43510493       4.56633356      12.15114853       0.00000000 NULL
P        1.39222196       2.02611319       5.45302650       0.00000000 NULL
P        2.88460913       1.89004854       1.89581689       0.00000000 NULL
P        1.95638545       4.13043811       5.84306170       0.00000000 NULL
P        2.79473193       4.42054373       1.03040178       0.00000000 NULL
P        4.36812431       6.07454009       9.14046218       0.00000000 NULL
P        2.62605401       5.56177996       8.03381993       0.00000000 NULL
13
Lattice="4.141769701240333 -0.00538890139878198 -0.003481561166502811 1.4032447002992128 6.4926030052806345 -0.04100624154438642 1.7389818625722628 1.770085496380405 13.01414043094162" Properties=species:S:1:pos:R:3:initial_magmoms:R:1:castep_labels:S:1 n_minim_iter=4 pbc="T T T"
P        2.73198992       6.53934015       0.83485060       0.00000000 NULL
P        1.19815508       2.96136919       3.00058332       0.00000000 NULL
P        2.31340252       3.65322103      12.26950156       0.00000000 NULL
P        3.69819142       6.25384148      11.29502167       0.00000000 NULL
P        0.97363971       3.31362915       0.83212882       0.00000000 NULL
P        2.82633604       1.59096326       8.57846140       0.00000000 NULL
P        4.45698096       4.54021965      12.31118213       0.00000000 NULL
P        1.39549880       2.01897511       5.52713175       0.00000000 NULL
P        2.91033050       1.88122032       1.91860341       0.00000000 NULL
P        1.96183209       4.12010463       5.91783148       0.00000000 NULL
P        2.82243817       4.42496631       1.03310275       0.00000000 NULL
P        4.39611171       6.05925285       9.25484961       0.00000000 NULL
P        2.63126204       5.54933572       8.13581397       0.00000000 NULL
13
Lattice="4.172694177600384 -0.015153525939196074 -0.017192533478772518 1.3982569230954445 6.448959159088065 -0.06893565103397446 1.704877832876344 1.7088597275574782 13.120097734860465" Properties=species:S:1:pos:R:3:initial_magmoms:R:1:castep_labels:S:1 n_minim_iter=5 pbc="T T T"
P        2.73442266       6.49562267       0.81038133       0.00000000 NULL
P        1.19113833       2.92559690       3.01730205       0.00000000 NULL
P        2.28388093       3.57346698      12.35650928       0.00000000 NULL
P        3.67200804       6.17023666      11.36036333       0.00000000 NULL
P        0.96540191       3.29177205       0.82969554       0.00000000 NULL
P        2.81495360       1.54232606       8.64204626       0.00000000 NULL
P        4.43854681       4.45835405      12.38545360       0.00000000 NULL
P        1.38324206       1.98912328       5.56336469       0.00000000 NULL
P        2.91805093       1.85131334       1.92495732       0.00000000 NULL
P        1.94675032       4.06557158       5.95025951       0.00000000 NULL
P        2.83424368       4.38812933       1.02111624       0.00000000 NULL
P        4.38754665       5.97879928       9.30123016       0.00000000 NULL
P        2.60869274       5.47865656       8.17948215       0.00000000 NULL
13
Lattice="4.195493683768492 -0.033233429557151854 -0.04079196959604152 1.377275443633945 6.3676244239740525 -0.11956891579816938 1.6327275543123263 1.596269454519482 13.169837937549673" Properties=species:S:1:pos:R:3:initial_magmoms:R:1:castep_labels:S:1 n_minim_iter=6 pbc="T T T"
P        2.71633076       6.41296046       0.75628882       0.00000000 NULL
P        1.16960697       2.86012000       3.01254303       0.00000000 NULL
P        2.21475123       3.42943498      12.38160097       0.00000000 NULL
P        3.59821140       6.01414561      11.35470011       0.00000000 NULL
P        0.94355698       3.24990413       0.81596625       0.00000000 NULL
P        2.77374971       1.45330372       8.66377559       0.00000000 NULL
P        4.37275441       4.30757037      12.38761393       0.00000000 NULL
P        1.35081292       1.93163842       5.56848760       0.00000000 NULL
P        2.90867014       1.79774285       1.91499163       0.00000000 NULL
P        1.90537319       3.96658967       5.94453436       0.00000000 NULL
P        2.83193269       4.31755927       0.98713821       0.00000000 NULL
P        4.33751266       5.82916292       9.28572985       0.00000000 NULL
P        2.54952967       5.34885963       8.17031547       0.00000000 NULL
13
Lattice="4.222375245123782 -0.0625538349917508 -0.0737743500841143 1.3398091997531372 6.306666621166126 -0.20313719930454086 1.5279466525132186 1.4275038115460383 13.174772922636226" Properties=species:S:1:pos:R:3:initial_magmoms:R:1:castep_labels:S:1 n_minim_iter=7 pbc="T T T"
P        2.68104487       6.34899100       0.66235265       0.00000000 NULL
P        1.13547650       2.78636264       2.98513026       0.00000000 NULL
P        2.11210334       3.23383306      12.35258344       0.00000000 NULL
P        3.48456179       5.82308060      11.27980296       0.00000000 NULL
P        0.90785992       3.21686411       0.78756357       0.00000000 NULL
P        2.71033312       1.32405378       8.65053416       0.00000000 NULL
P        4.27118235       4.10781777      12.32328145       0.00000000 NULL
P        1.30085026       1.85326021       5.54498592       0.00000000 NULL
P        2.88886261       1.73166223       1.88925757       0.00000000 NULL
P        1.84212337       3.85277353       5.90078848       0.00000000 NULL
P        2.82181563       4.24845216       0.92565349       0.00000000 NULL
P        4.25648929       5.64701748       9.21039351       0.00000000 NULL
P        2.45831204       5.19673506       8.10825813       0.00000000 NULL
13
Lattice="4.236519425111557 -0.08120099746024921 -0.09547550656802242 1.3149752239990558 6.267877700587818 -0.257803607553505 1.4577979574446793 1.3176726671651613 13.132703816788624" Properties=species:S:1:pos:R:3:initial_magmoms:R:1:castep_labels:S:1 n_minim_iter=8 pbc="T T T"
P        2.65630825       6.30779930       0.59677634       0.00000000 NULL
P        1.11269667       2.73897438       2.95599732       0.00000000 NULL
P        2.04330095       3.10770556      12.29183892       0.00000000 NULL
P        3.40810117       5.69866486      11.19158585       0.00000000 NULL
P        0.88416986       3.19590836       0.76619479       0.00000000 NULL
P        2.66603422       1.23988292       8.61206044       0.00000000 NULL
P        4.20128034       3.97942552      12.23811631       0.00000000 NULL
P        1.26657397       1.80000740       5.51041708       0.00000000 NULL
P        2.87299211       1.68924894       1.86566020       0.00000000 NULL
P        1.80028788       3.78172420       5.85153725       0.00000000 NULL
P        2.81348967       4.20321144       0.88107619       0.00000000 NULL
P        4.20031410       5.52908414       9.12957974       0.00000000 NULL
P        2.39688880       5.09898513       8.03912823       0.00000000 NULL
13
Lattice="4.250365831991137 -0.09517279485632271 -0.11010660009878681 1.297475167628244 6.248069350532259 -0.29696752129972614 1.4116924566631783 1.240449734731075 13.110798779416008" Properties=species:S:1:pos:R:3:initial_magmoms:R:1:castep_labels:S:1 n_minim_iter=9 pbc="T T T"
P        2.64012071       6.28605028       0.55006227       0.00000000 NULL
P        1.09783007       2.70842370       2.93720130       0.00000000 NULL
P        1.99842805       3.02107811      12.25629332       0.00000000 NULL
P        3.35822361       5.61638500      11.13585278       0.00000000 NULL
P        0.86749996       3.18528177       0.75173737       0.00000000 NULL
P        2.63825638       1.18067215       8.59033050       0.00000000 NULL
P        4.15716688       3.89238032      12.18503132       0.00000000 NULL
P        1.24396516       1.76301724       5.48931064       0.00000000 NULL
P        2.86413044       1.66051986       1.85080845       0.00000000 NULL
P        1.77319290       3.73665691       5.82004874       0.00000000 NULL
P        2.80992041       4.17556794       0.85019511       0.00000000 NULL
P        4.16544543       5.45101445       9.07819014       0.00000000 NULL
P        2.35594254       5.03542593       7.99469120       0.00000000 NULL
13
Lattice="4.259157585690962 -0.10465825725393643 -0.1195226140996485 1.2853869194524474 6.232090906008831 -0.3223186449295375 1.3817465220212999 1.1893828438750063 13.092818467682267" Properties=species:S:1:pos:R:3:initial_magmoms:R:1:castep_labels:S:1 n_minim_iter=10 pbc="T T T"
P        2.62878663       6.26859005       0.51930373       0.00000000 NULL
P        1.08801645       2.68705610       2.92417077       0.00000000 NULL
P        1.96917539       2.96296585      12.22981925       0.00000000 NULL
P        3.32527721       5.55973386      11.09647142       0.00000000 NULL
P        0.85620065       3.17695525       0.74232552       0.00000000 NULL
P        2.62000602       1.14106902       8.57386068       0.00000000 NULL
P        4.12802182       3.83360189      12.14686840       0.00000000 NULL
P        1.22905196       1.73761684       5.47404633       0.00000000 NULL
P        2.85787059       1.64067321       1.84084686       0.00000000 NULL
P        1.75539469       3.70580960       5.79791105       0.00000000 NULL
P        2.80716284       4.15514828       0.82992778       0.00000000 NULL
P        4.14224116       5.39710234       9.04226254       0.00000000 NULL
P        2.32872710       4.99149257       7.96346278       0.00000000 NULL
13
Lattice="4.290413843383333 -0.13665944327223348 -0.15044254375103577 1.2451485350206435 6.175707403010263 -0.40816005470970074 1.284034208732389 1.0152101053466513 13.034311602246918" Properties=species:S:1:pos:R:3:initial_magmoms:R:1:castep_labels:S:1 n_minim_iter=11 pbc="T T T"
P        2.59159058       6.20686020       0.41483951       0.00000000 NULL
P        1.05632073       2.61341842       2.88077565       0.00000000 NULL
P        1.87430191       2.76441867      12.14282187       0.00000000 NULL
P        3.21786685       5.36520376      10.96543413       0.00000000 NULL
P        0.81811584       3.14791579       0.71088657       0.00000000 NULL
P        2.56109796       1.00575774       8.52022022       0.00000000 NULL
P        4.03382859       3.63294449      12.01995709       0.00000000 NULL
P        1.18028219       1.64987432       5.42357315       0.00000000 NULL
P        2.83783305       1.57259596       1.80853591       0.00000000 NULL
P        1.69774786       3.60067195       5.72397437       0.00000000 NULL
P        2.79949525       4.08400895       0.76191248       0.00000000 NULL
P        4.06777579       5.21180064       8.92280128       0.00000000 NULL
P        2.23933782       4.84070220       7.85919224       0.00000000 NULL
13
Lattice="4.330996629433662 -0.17225891175457902 -0.1755594779002435 1.2023668124776956 6.119947195693686 -0.48926319209940744 1.2067360032380936 0.8454552012890052 12.988244644355355" Properties=species:S:1:pos:R:3:initial_magmoms:R:1:castep_labels:S:1 n_minim_iter=12 pbc="T T T"
P        2.55534422       6.14308513       0.31587172       0.00000000 NULL
P        1.02984390       2.54101062       2.84221278       0.00000000 NULL
P        1.79910289       2.57064423      12.07027383       0.00000000 NULL
P        3.12913373       5.17382436      10.85073804       0.00000000 NULL
P        0.78047952       3.12013997       0.68287714       0.00000000 NULL
P        2.51843065       0.87143149       8.47763313       0.00000000 NULL
P        3.96194311       3.43553225      11.90930399       0.00000000 NULL
P        1.14015692       1.56102659       5.38062225       0.00000000 NULL
P        2.82520779       1.50387012       1.78316658       0.00000000 NULL
P        1.65046036       3.50079880       5.65840686       0.00000000 NULL
P        2.79559578       4.01128834       0.70061283       0.00000000 NULL
P        4.01110266       5.02754256       8.81875200       0.00000000 NULL
P        2.16185853       4.69339311       7.76646793       0.00000000 NULL
13
Lattice="4.331731797281064 -0.17297800096723237 -0.17593288379047375 1.2014738142562122 6.118965056275074 -0.49048423142842934 1.205556586352379 0.8427959723811039 12.987234397449916" Properties=species:S:1:pos:R:3:initial_magmoms:R:1:castep_labels:S:1 n_minim_iter=13 pbc="T T T"
P        2.55457184       6.14191119       0.31432253       0.00000000 NULL
P        1.02938165       2.53981345       2.84155467       0.00000000 NULL
P        1.79791688       2.56755460      12.06889181       0.00000000 NULL
P        3.12763545       5.17070497      10.84873156       0.00000000 NULL
P        0.77978225       3.11967092       0.68246164       0.00000000 NULL
P        2.51779047       0.86923861       8.47679508       0.00000000 NULL
P        3.96078149       3.43232427      11.90729913       0.00000000 NULL
P        1.13949831       1.55955838       5.37984590       0.00000000 NULL
P        2.82500160       1.50269084       1.78277480       0.00000000 NULL
P        1.64965896       3.49921781       5.65726933       0.00000000 NULL
P        2.79543184       4.00998940       0.69968558       0.00000000 NULL
P        4.01012805       5.02447972       8.81696221       0.00000000 NULL
P        2.16052197       4.69100593       7.76486622       0.00000000 NULL
13
Lattice="4.375732866224797 -0.2154410719114248 -0.19774694522303393 1.1489418255723802 6.061991157271339 -0.5617594448691486 1.1368956664551517 0.6875239642544951 12.928926801931881" Properties=species:S:1:pos:R:3:initial_magmoms:R:1:castep_labels:S:1 n_minim_iter=14 pbc="T T T"
P        2.50929937       6.07367380       0.22373317       0.00000000 NULL
P        1.00257042       2.46989931       2.80336871       0.00000000 NULL
P        1.72915708       2.38716603      11.98895258       0.00000000 NULL
P        3.04028754       4.98880215      10.73208386       0.00000000 NULL
P        0.73848856       3.09242325       0.65825811       0.00000000 NULL
P        2.48087599       0.74104719       8.42841987       0.00000000 NULL
P        3.89350685       3.24515929      11.79070794       0.00000000 NULL
P        1.10116945       1.47390110       5.33486457       0.00000000 NULL
P        2.81326944       1.43365354       1.76026075       0.00000000 NULL
P        1.60288483       3.40702556       5.59098458       0.00000000 NULL
P        2.78632424       3.93396799       0.64566859       0.00000000 NULL
P        3.95382013       4.84555104       8.71295093       0.00000000 NULL
P        2.08239413       4.55193384       7.67175561       0.00000000 NULL
13
Lattice="4.386070037882241 -0.22462235349109572 -0.20085272988345 1.1378641187381175 6.051958543637259 -0.5733222414260293 1.127422178282608 0.6610727473611234 12.919159951303122" Properties=species:S:1:pos:R:3:initial_magmoms:R:1:castep_labels:S:1 n_minim_iter=15 pbc="T T T"
P        2.50018472       6.06097214       0.20859923       0.00000000 NULL
P        0.99828354       2.45749254       2.79713871       0.00000000 NULL
P        1.71952386       2.35589749      11.97577722       0.00000000 NULL
P        3.02652271       4.95707637      10.71291529       0.00000000 NULL
P        0.73050065       3.08795823       0.65468744       0.00000000 NULL
P        2.47676774       0.71820139       8.42065716       0.00000000 NULL
P        3.88435532       3.21237231      11.77108353       0.00000000 NULL
P        1.09532431       1.45861752       5.32750516       0.00000000 NULL
P        2.81246493       1.42093172       1.75737848       0.00000000 NULL
P        1.59552142       3.39160610       5.58001541       0.00000000 NULL
P        2.78487026       3.91973643       0.63741493       0.00000000 NULL
P        3.94581099       4.81365768       8.69607408       0.00000000 NULL
P        2.06933801       4.52799907       7.65643436       0.00000000 NULL
13
Lattice="4.38948531650119 -0.22775610406514787 -0.2018470585720234 1.1340445627072424 6.04838063862429 -0.5770727454170516 1.124345907139542 0.6523413138219935 12.915589372496163" Properties=species:S:1:pos:R:3:initial_magmoms:R:1:castep_labels:S:1 n_minim_iter=16 pbc="T T T"
P        2.49700189       6.05646689       0.20363259       0.00000000 NULL
P        0.99684327       2.45327334       2.79502346       0.00000000 NULL
P        1.71637367       2.34547802      11.97113453       0.00000000 NULL
P        3.02190388       4.94637598      10.70634778       0.00000000 NULL
P        0.72778646       3.08636358       0.65351830       0.00000000 NULL
P        2.47542384       0.71058998       8.41788649       0.00000000 NULL
P        3.88128342       3.20139228      11.76430784       0.00000000 NULL
P        1.09338230       1.45349304       5.32494957       0.00000000 NULL
P        2.81216304       1.41663239       1.75642468       0.00000000 NULL
P        1.59304916       3.38639451       5.57626486       0.00000000 NULL
P        2.78428241       3.91480939       0.63473150       0.00000000 NULL
P        3.94307900       4.80287417       8.69031578       0.00000000 NULL
P        2.06495323       4.51991850       7.65121454       0.00000000 NULL
13
Lattice="4.442739047436052 -0.27636132074549363 -0.21677899725929262 1.0748984483464665 5.993606563686555 -0.6337486422928057 1.0782807884520027 0.519724594452554 12.860831573755888" Properties=species:S:1:pos:R:3:initial_magmoms:R:1:castep_labels:S:1 n_minim_iter=17 pbc="T T T"
P        2.44777625       5.98736620       0.12825274       0.00000000 NULL
P        0.97516376       2.38874448       2.76294192       0.00000000 NULL
P        1.66943738       2.18683576      11.90034799       0.00000000 NULL
P        2.95179694       4.78332405      10.60633712       0.00000000 NULL
P        0.68564402       3.06198947       0.63587573       0.00000000 NULL
P        2.45578873       0.59454163       8.37565623       0.00000000 NULL
P        3.83522280       3.03420058      11.66087420       0.00000000 NULL
P        1.06408874       1.37543980       5.28606097       0.00000000 NULL
P        2.80790697       1.35077283       1.74230371       0.00000000 NULL
P        1.55545421       3.30698544       5.51900892       0.00000000 NULL
P        2.77550292       3.83900375       0.59433369       0.00000000 NULL
P        3.90211355       4.63810663       8.60277295       0.00000000 NULL
P        1.99807311       4.39693773       7.57181123       0.00000000 NULL
13
Lattice="4.489437188988548 -0.31937041967684776 -0.22599957570258145 1.022417446843412 5.945504126992622 -0.6687520723568628 1.0497909421301141 0.4295174572396468 12.809656468424002" Properties=species:S:1:pos:R:3:initial_magmoms:R:1:castep_labels:S:1 n_minim_iter=18 pbc="T T T"
P        2.40368641       5.92654252       0.07722496       0.00000000 NULL
P        0.95978414       2.33798714       2.73929812       0.00000000 NULL
P        1.64071334       2.07240243      11.84057390       0.00000000 NULL
P        2.90029460       4.66197266      10.52864901       0.00000000 NULL
P        0.65006311       3.04219427       0.62635879       0.00000000 NULL
P        2.44607871       0.50966455       8.33886336       0.00000000 NULL
P        3.80404811       2.91224779      11.57636018       0.00000000 NULL
P        1.04348409       1.31734339       5.25447370       0.00000000 NULL
P        2.80672218       1.29885928       1.73488172       0.00000000 NULL
P        1.52811756       3.24953364       5.47458634       0.00000000 NULL
P        2.76693686       3.77471443       0.57030764       0.00000000 NULL
P        3.87318027       4.51205704       8.53615848       0.00000000 NULL
P        1.94712157       4.30599349       7.51170160       0.00000000 NULL
13
Lattice="4.580577128535132 -0.40296098110821627 -0.2380149061094412 0.9205470869624982 5.86559708095555 -0.7207380840993565 1.0129980067031514 0.28558385005955916 12.735252253538427" Properties=species:S:1:pos:R:3:initial_magmoms:R:1:castep_labels:S:1 n_minim_iter=19 pbc="T T T"
P        2.31733393       5.82232937      -0.00351824       0.00000000 NULL
P        0.93678336       2.25080678       2.70515488       0.00000000 NULL
P        1.60530760       1.88316978      11.75435623       0.00000000 NULL
P        2.81655169       4.46234618      10.41393458       0.00000000 NULL
P        0.58325286       3.01248871       0.61545146       0.00000000 NULL
P        2.43895022       0.36641840       8.28665869       0.00000000 NULL
P        3.75807057       2.71150896      11.44675643       0.00000000 NULL
P        1.01186058       1.21970496       5.20799150       0.00000000 NULL
P        2.80841630       1.20907005       1.73149158       0.00000000 NULL
P        1.48408598       3.15940468       5.40732873       0.00000000 NULL
P        2.75014959       3.66141449       0.53964111       0.00000000 NULL
P        3.82921150       4.29938237       8.43886196       0.00000000 NULL
P        1.86080069       4.15915740       7.42400006       0.00000000 NULL
13
Lattice="4.682482445641963 -0.516522706344895 -0.24021055281537002 0.77468199396853 5.715584076005454 -0.7499758952004816 0.9978049805207582 0.14995369345916887 12.571861988665088" Properties=species:S:1:pos:R:3:initial_magmoms:R:1:castep_labels:S:1 n_minim_iter=20 pbc="T T T"
P        2.18029874       5.64168873      -0.07899134       0.00000000 NULL
P        0.92131108       2.12277475       2.65982346       0.00000000 NULL
P        1.59829202       1.66413260      11.59624271       0.00000000 NULL
P        2.72280391       4.21037316      10.23986631       0.00000000 NULL
P        0.49314214       2.95775780       0.61536692       0.00000000 NULL
P        2.43927695       0.20573092       8.18192473       0.00000000 NULL
P        3.70106032       2.48176477      11.23434548       0.00000000 NULL
P        0.98180209       1.10075516       5.12705101       0.00000000 NULL
P        2.79974643       1.09494152       1.74063563       0.00000000 NULL
P        1.43587379       3.04882081       5.30692444       0.00000000 NULL
P        2.71091816       3.48467506       0.53099858       0.00000000 NULL
P        3.77375887       4.02291743       8.29776953       0.00000000 NULL
P        1.76144587       3.97179656       7.30062776       0.00000000 NULL
13
Lattice="4.801795799795425 -0.5561472368710121 -0.2402436143352056 0.7523361285859366 5.813980261832178 -0.7780498925250566 1.0302252022848253 0.1100392428837398 12.761718926134467" Properties=species:S:1:pos:R:3:initial_magmoms:R:1:castep_labels:S:1 n_minim_iter=21 pbc="T T T"
P        2.18224584       5.73160946      -0.11268346       0.00000000 NULL
P        0.94782574       2.13070710       2.69749056       0.00000000 NULL
P        1.64870438       1.63291797      11.76999279       0.00000000 NULL
P        2.76501785       4.24117928      10.37977767       0.00000000 NULL
P        0.48049267       3.01846140       0.62461203       0.00000000 NULL
P        2.49355026       0.16427078       8.30488534       0.00000000 NULL
P        3.77225977       2.47693407      11.38075807       0.00000000 NULL
P        1.00107656       1.08753275       5.19823134       0.00000000 NULL
P        2.85355024       1.09589625       1.78413865       0.00000000 NULL
P        1.46269389       3.09933275       5.37187656       0.00000000 NULL
P        2.75528540       3.52091642       0.54229228       0.00000000 NULL
P        3.84785791       4.04083252       8.41052585       0.00000000 NULL
P        1.78254607       4.01536567       7.40384941       0.00000000 NULL
13
Lattice="4.762572078354557 -0.5594907720942691 -0.25078869365659495 0.7336484861959189 5.703818183384563 -0.7754869121263529 0.9792267975579639 0.08963669326399408 12.546884292623503" Properties=species:S:1:pos:R:3:initial_magmoms:R:1:castep_labels:S:1 n_minim_iter=22 pbc="T T T"
P        2.14819953       5.61913751      -0.12899015       0.00000000 NULL
P        0.93039234       2.08080854       2.64683673       0.00000000 NULL
P        1.59620064       1.58001025      11.56984148       0.00000000 NULL
P        2.69779438       4.14074366      10.19251884       0.00000000 NULL
P        0.46830998       2.96093008       0.61036522       0.00000000 NULL
P        2.44233455       0.14064527       8.16016477       0.00000000 NULL
P        3.69155255       2.40878745      11.17409508       0.00000000 NULL
P        0.97250425       1.05811243       5.10566223       0.00000000 NULL
P        2.81515901       1.06717944       1.74707453       0.00000000 NULL
P        1.42700206       3.03321569       5.27292661       0.00000000 NULL
P        2.71923235       3.44501127       0.52156365       0.00000000 NULL
P        3.77470867       3.94461258       8.25245717       0.00000000 NULL
P        1.73450146       3.92720715       7.27086514       0.00000000 NULL
13
Lattice="4.775282775937256 -0.5660062850680715 -0.25297377990505787 0.7276193283287563 5.700575260449124 -0.7803193795260496 0.9748369812129531 0.07857255883539208 12.547182855439495" Properties=species:S:1:pos:R:3:initial_magmoms:R:1:castep_labels:S:1 n_minim_iter=23 pbc="T T T"
P        2.14319823       5.61428286      -0.13804166       0.00000000 NULL
P        0.93244743       2.07250373       2.64561591       0.00000000 NULL
P        1.59487862       1.56456534      11.56949824       0.00000000 NULL
P        2.69286660       4.12755634      10.18788444       0.00000000 NULL
P        0.46484062       2.96077967       0.60959077       0.00000000 NULL
P        2.44148156       0.12924759       8.15921903       0.00000000 NULL
P        3.68874627       2.39531187      11.16772139       0.00000000 NULL
P        0.97041772       1.05067334       5.10350307       0.00000000 NULL
P        2.81701680       1.06287165       1.74877372       0.00000000 NULL
P        1.42577308       3.02961455       5.26852534       0.00000000 NULL
P        2.72027637       3.43768690       0.52026082       0.00000000 NULL
P        3.77408390       3.93035312       8.24718697       0.00000000 NULL
P        1.72982708       3.91833584       7.26872677       0.00000000 NULL
13
Lattice="4.812631499103276 -0.587059526130115 -0.26130336232264834 0.7068686563732379 5.678409490084919 -0.795770922285105 0.9551194842498485 0.040660308853347336 12.51792037020642" Properties=species:S:1:pos:R:3:initial_magmoms:R:1:castep_labels:S:1 n_minim_iter=24 pbc="T T T"
P        2.12439929       5.58675210      -0.16937222       0.00000000 NULL
P        0.93753587       2.04039191       2.63450407       0.00000000 NULL
P        1.58492361       1.50937623      11.54006177       0.00000000 NULL
P        2.67044935       4.07434239      10.14648375       0.00000000 NULL
P        0.45297177       2.95384752       0.60477607       0.00000000 NULL
P        2.43337865       0.09024580       8.13582064       0.00000000 NULL
P        3.67167569       2.34452123      11.11862152       0.00000000 NULL
P        0.96085454       1.02389306       5.08339507       0.00000000 NULL
P        2.81924230       1.04621984       1.74870083       0.00000000 NULL
P        1.41843876       3.01065095       5.24023651       0.00000000 NULL
P        2.72019417       3.40618061       0.51298729       0.00000000 NULL
P        3.76483577       3.87439242       8.20792100       0.00000000 NULL
P        1.71008708       3.88019586       7.24311357       0.00000000 NULL
13
Lattice="5.118269305986834 -0.7290884977490748 -0.32260454266457633 0.5851777293719526 5.576543172758506 -0.8997926047627978 0.8288787809387854 -0.1976796960976583 12.308293529574561" Properties=species:S:1:pos:R:3:initial_magmoms:R:1:castep_labels:S:1 n_minim_iter=25 pbc="T T T"
P        2.02897833       5.45233421      -0.38279604       0.00000000 NULL
P        0.99716473       1.83636717       2.55847970       0.00000000 NULL
P        1.53710957       1.16642008      11.32851876       0.00000000 NULL
P        2.55513514       3.76545949       9.85406182       0.00000000 NULL
P        0.38842374       2.92985669       0.57066436       0.00000000 NULL
P        2.39751727      -0.15555247       7.96817809       0.00000000 NULL
P        3.59530926       2.03902863      10.77812511       0.00000000 NULL
P        0.90951384       0.86397331       4.93708333       0.00000000 NULL
P        2.85898589       0.95406544       1.74332896       0.00000000 NULL
P        1.39559014       2.91539809       5.03603198       0.00000000 NULL
P        2.74857458       3.22472768       0.46553472       0.00000000 NULL
P        3.74711310       3.54660698       7.92975930       0.00000000 NULL
P        1.60083437       3.66402547       7.06817682       0.00000000 NULL
13
Lattice="4.639452303384424 -0.6036989309045876 -0.3081751366334238 0.6213743342483783 5.466165354932486 -0.847035381669716 0.7281247215336182 -0.09444075265606479 11.88053312580077" Properties=species:S:1:pos:R:3:initial_magmoms:R:1:castep_labels:S:1 n_minim_iter=26 pbc="T T T"
P        1.93209982       5.36897025      -0.35674922       0.00000000 NULL
P        0.93447486       1.80272126       2.49553589       0.00000000 NULL
P        1.39450049       1.25307670      10.93172781       0.00000000 NULL
P        2.37454432       3.80354769       9.52093185       0.00000000 NULL
P        0.44111189       2.87761622       0.57506466       0.00000000 NULL
P        2.15267152      -0.05593862       7.69138907       0.00000000 NULL
P        3.25169352       2.14487731      10.41772278       0.00000000 NULL
P        0.83505355       0.90987841       4.73402444       0.00000000 NULL
P        2.60292491       1.03521050       1.70029335       0.00000000 NULL
P        1.33512139       2.93719218       4.84701544       0.00000000 NULL
P        2.51936127       3.20777425       0.49545029       0.00000000 NULL
P        3.42127804       3.62348808       7.65474811       0.00000000 NULL
P        1.50381939       3.66272519       6.87006063       0.00000000 NULL
13
Lattice="4.988939048122501 -0.6686712176414893 -0.3207469340342122 0.6371766588796337 5.728329614769889 -0.9274924573520964 0.807333091099372 -0.19030310521300833 12.449331181174884" Properties=species:S:1:pos:R:3:initial_magmoms:R:1:castep_labels:S:1 n_minim_iter=27 pbc="T T T"
P        2.04776785       5.60923576      -0.41409100       0.00000000 NULL
P        0.98587797       1.86465804       2.60960319       0.00000000 NULL
P        1.50548249       1.22448546      11.44186161       0.00000000 NULL
P        2.54451920       3.90244165       9.94722482       0.00000000 NULL
P        0.44927313       3.01195085       0.58409801       0.00000000 NULL
P        2.32697941      -0.12570136       8.05481490       0.00000000 NULL
P        3.51561480       2.14068289      10.89691220       0.00000000 NULL
P        0.90229195       0.91156184       4.95270664       0.00000000 NULL
P        2.81383289       1.04445057       1.77321329       0.00000000 NULL
P        1.43091912       3.03441829       5.05373546       0.00000000 NULL
P        2.70030419       3.33626444       0.49564712       0.00000000 NULL
P        3.68713675       3.70648003       7.99404636       0.00000000 NULL
P        1.60113572       3.77724127       7.17298245       0.00000000 NULL
13
Lattice="4.997908567758363 -0.6778485692759438 -0.3302279056190193 0.6256390071989288 5.64303809036371 -0.9209588514633671 0.7773993863541836 -0.1984452686668505 12.281723230713308" Properties=species:S:1:pos:R:3:initial_magmoms:R:1:castep_labels:S:1 n_minim_iter=28 pbc="T T T"
P        2.03815098       5.52000821      -0.41930279       0.00000000 NULL
P        0.97425966       1.83064847       2.57262710       0.00000000 NULL
P        1.47505140       1.19364710      11.28544623       0.00000000 NULL
P        2.51301488       3.82934887       9.80517737       0.00000000 NULL
P        0.44168144       2.96555696       0.57399902       0.00000000 NULL
P        2.30877498      -0.13919631       7.94179012       0.00000000 NULL
P        3.48572820       2.08942775      10.74106281       0.00000000 NULL
P        0.88893203       0.89470789       4.88050592       0.00000000 NULL
P        2.81069343       1.01808449       1.74057725       0.00000000 NULL
P        1.41395894       2.98092168       4.98022834       0.00000000 NULL
P        2.69372052       3.27606756       0.47967058       0.00000000 NULL
P        3.66191055       3.63389548       7.87398273       0.00000000 NULL
P        1.57531528       3.71211166       7.07055502       0.00000000 NULL
13
Lattice="5.031717225328349 -0.6898441403437753 -0.3344375149900783 0.6180864032859982 5.621523796635855 -0.9250483292482994 0.773138176936853 -0.21369119707722029 12.244959792761057" Properties=species:S:1:pos:R:3:initial_magmoms:R:1:castep_labels:S:1 n_minim_iter=29 pbc="T T T"
P        2.04028790       5.49389096      -0.42740800       0.00000000 NULL
P        0.97292438       1.81624417       2.56419475       0.00000000 NULL
P        1.47188366       1.17249198      11.24915550       0.00000000 NULL
P        2.51267175       3.79720053       9.76931104       0.00000000 NULL
P        0.43758695       2.95333215       0.56981595       0.00000000 NULL
P        2.31606456      -0.15455906       7.91573818       0.00000000 NULL
P        3.49477648       2.05888678      10.70323527       0.00000000 NULL
P        0.88909751       0.88542674       4.86123573       0.00000000 NULL
P        2.82663866       1.00459412       1.73148174       0.00000000 NULL
P        1.41470929       2.96056604       4.95963044       0.00000000 NULL
P        2.70367962       3.25445999       0.47298267       0.00000000 NULL
P        3.67242598       3.60071188       7.84183608       0.00000000 NULL
P        1.57081607       3.68633785       7.04473754       0.00000000 NULL
13
Lattice="5.073235409541609 -0.7056896452133915 -0.33805132682750205 0.6070390587500268 5.5998636124729115 -0.9313478762787565 0.7722523574855857 -0.23496611338550746 12.206950417007903" Properties=species:S:1:pos:R:3:initial_magmoms:R:1:castep_labels:S:1 n_minim_iter=30 pbc="T T T"
P        2.04167528       5.46590104      -0.43874341       0.00000000 NULL
P        0.97189176       1.79721574       2.55665006       0.00000000 NULL
P        1.47120063       1.14522947      11.21068080       0.00000000 NULL
P        2.51470158       3.75875167       9.73084590       0.00000000 NULL
P        0.43234890       2.94136206       0.56559089       0.00000000 NULL
P        2.32653037      -0.17519877       7.88869313       0.00000000 NULL
P        3.50827210       2.02017780      10.66353201       0.00000000 NULL
P        0.89095419       0.87467025       4.83828814       0.00000000 NULL
P        2.84657247       0.98933199       1.72285901       0.00000000 NULL
P        1.41856684       2.93787615       4.93555206       0.00000000 NULL
P        2.71475200       3.22930540       0.46710692       0.00000000 NULL
P        3.68742991       3.56112625       7.80650329       0.00000000 NULL
P        1.56638346       3.65623776       7.01805965       0.00000000 NULL
