12
Lattice="5.107603356146582 0.0 0.0 0.0 3.307822886543835 0.0 0.0 0.0 14.225798568482572" Properties=species:S:1:pos:R:3:initial_magmoms:R:1:castep_labels:S:1:forces:R:3 n_minim_iter=1 energy=-64.783320036691 stress="-0.004268229849141519 -0.0 0.0 -0.0 0.002220386549001183 -0.0 0.0 -0.0 0.007174212649584473" free_energy=-64.783320036691 pbc="T T T"
P        3.15843569       0.51731087      10.65916417       0.00000000 NULL       0.04020300      -0.02238200      -0.01980400
P        1.94916767       0.51731087       3.56663440       0.00000000 NULL      -0.04020300      -0.02238200       0.01980400
P        0.60463401       0.51731087      10.67953368       0.00000000 NULL       0.04020200      -0.02238200       0.01980400
P        4.50296935       0.51731087       3.54626489       0.00000000 NULL      -0.04020200      -0.02238200      -0.01980400
P        3.33400833       2.15768079       8.95990507       0.00000000 NULL      -0.03914300       0.06045500       0.06504900
P        1.77359503       2.15768079       5.26589349       0.00000000 NULL       0.03914300       0.06045500      -0.06504900
P        0.78020665       2.15768079      12.37879278       0.00000000 NULL      -0.03914100       0.06045500      -0.06505000
P        4.32739671       2.15768079       1.84700579       0.00000000 NULL       0.03914100       0.06045500       0.06505000
P        3.02156317       2.17149790      12.34086998       0.00000000 NULL      -0.01058800      -0.03807300      -0.02392700
P        2.08604019       2.17149790       1.88492859       0.00000000 NULL       0.01058800      -0.03807300       0.02392700
P        0.46776149       2.17149790       8.99782788       0.00000000 NULL      -0.01058500      -0.03807300       0.02392600
P        4.63984186       2.17149790       5.22797069       0.00000000 NULL       0.01058500      -0.03807300      -0.02392600
12
Lattice="5.129244156062443 0.0 0.0 0.0 3.30055541678589 0.0 0.0 0.0 14.125059357016468" Properties=species:S:1:pos:R:3:initial_magmoms:R:1:castep_labels:S:1:forces:R:3 n_minim_iter=2 energy=-64.792287469386 stress="-3.675854150702161e-05 -0.0 0.0 -0.0 -0.0019276279530900588 -0.0 0.0 -0.0 0.0005340652259228362" free_energy=-64.792287469386 pbc="T T T"
P        3.17198431       0.51608226      10.58360084       0.00000000 NULL       0.03882000      -0.02444400      -0.02288500
P        1.95725985       0.51608226       3.54145852       0.00000000 NULL      -0.03882000      -0.02444400       0.02288500
P        0.60736223       0.51608226      10.60398820       0.00000000 NULL       0.03882000      -0.02444400       0.02288500
P        4.52188193       0.51608226       3.52107116       0.00000000 NULL      -0.03882000      -0.02444400      -0.02288500
P        3.34797244       2.15318887       8.89672220       0.00000000 NULL       0.01623400       0.06218300      -0.04035500
P        1.78127172       2.15318887       5.22833716       0.00000000 NULL      -0.01623400       0.06218300       0.04035500
P        0.78335036       2.15318887      12.29086683       0.00000000 NULL       0.01623500       0.06218300       0.04035500
P        4.34589380       2.15318887       1.83419252       0.00000000 NULL      -0.01623500       0.06218300      -0.04035500
P        3.03432165       2.16657043      12.25338087       0.00000000 NULL      -0.06509600      -0.03773900       0.08627100
P        2.09492251       2.16657043       1.87167849       0.00000000 NULL       0.06509600      -0.03773900      -0.08627100
P        0.46969957       2.16657043       8.93420817       0.00000000 NULL      -0.06509500      -0.03773900      -0.08627200
P        4.65954459       2.16657043       5.19085119       0.00000000 NULL       0.06509500      -0.03773900       0.08627200
12
Lattice="5.133311605066944 0.0 0.0 0.0 3.3137971393985652 0.0 0.0 0.0 14.091146938827803" Properties=species:S:1:pos:R:3:initial_magmoms:R:1:castep_labels:S:1:forces:R:3 n_minim_iter=3 energy=-64.793773026492 stress="0.0014311160634894644 0.0 -0.0 0.0 0.0009189780972057463 -0.0 -0.0 -0.0 0.0005717121774154506" free_energy=-64.793773026492 pbc="T T T"
P        3.17489930       0.51790546      10.55796391       0.00000000 NULL       0.03729000      -0.02263100      -0.01964500
P        1.95841231       0.51790546       3.53318303       0.00000000 NULL      -0.03729000      -0.02263100       0.01964500
P        0.60824350       0.51790546      10.57875650       0.00000000 NULL       0.03729100      -0.02263100       0.01964400
P        4.52506811       0.51790546       3.51239044       0.00000000 NULL      -0.03729100      -0.02263100      -0.01964400
P        3.35075560       2.16245895       8.87503036       0.00000000 NULL       0.03004800       0.05756600      -0.03863500
P        1.78255601       2.16245895       5.21611658       0.00000000 NULL      -0.03004800       0.05756600       0.03863500
P        0.78409979       2.16245895      12.26169005       0.00000000 NULL       0.03004600       0.05756600       0.03863500
P        4.34921181       2.16245895       1.82945689       0.00000000 NULL      -0.03004600       0.05756600      -0.03863500
P        3.03609720       2.17487839      12.22475067       0.00000000 NULL      -0.07745800      -0.03493500       0.08331500
P        2.09721441       2.17487839       1.86639627       0.00000000 NULL       0.07745800      -0.03493500      -0.08331500
P        0.46944140       2.17487839       8.91196974       0.00000000 NULL      -0.07746100      -0.03493500      -0.08331500
P        4.66387021       2.17487839       5.17917720       0.00000000 NULL       0.07746100      -0.03493500       0.08331500
12
Lattice="5.125888912491758 0.0 0.0 0.0 3.3164266272764817 0.0 0.0 0.0 14.06478246118143" Properties=species:S:1:pos:R:3:initial_magmoms:R:1:castep_labels:S:1:forces:R:3 n_minim_iter=4 energy=-64.794530265274 stress="-0.000966138380673685 0.0 -0.0 0.0 0.0005817324128480642 -0.0 -0.0 -0.0 -0.0007607398703927989" free_energy=-64.794530265274 pbc="T T T"
P        3.17070181       0.51807557      10.53799779       0.00000000 NULL       0.03490400      -0.02142800      -0.01731500
P        1.95518710       0.51807557       3.52678468       0.00000000 NULL      -0.03490400      -0.02142800       0.01731500
P        0.60775735       0.51807557      10.55917591       0.00000000 NULL       0.03490500      -0.02142800       0.01731400
P        4.51813156       0.51807557       3.50560655       0.00000000 NULL      -0.03490500      -0.02142800      -0.01731400
P        3.34613413       2.16478866       8.85806210       0.00000000 NULL       0.00636200       0.05329200      -0.06140200
P        1.77975478       2.16478866       5.20672036       0.00000000 NULL      -0.00636200       0.05329200       0.06140200
P        0.78318967       2.16478866      12.23911159       0.00000000 NULL       0.00636200       0.05329200       0.06140200
P        4.34269924       2.16478866       1.82567087       0.00000000 NULL      -0.00636200       0.05329200      -0.06140200
P        3.03098599       2.17623119      12.20269489       0.00000000 NULL      -0.05149500      -0.03186400       0.10348500
P        2.09490292       2.17623119       1.86208757       0.00000000 NULL       0.05149500      -0.03186400      -0.10348500
P        0.46804154       2.17623119       8.89447880       0.00000000 NULL      -0.05149500      -0.03186400      -0.10348500
P        4.65784738       2.17623119       5.17030366       0.00000000 NULL       0.05149500      -0.03186400       0.10348500
12
Lattice="5.144995339108808 0.0 0.0 0.0 3.3109251135131323 0.0 0.0 0.0 13.964842331772632" Properties=species:S:1:pos:R:3:initial_magmoms:R:1:castep_labels:S:1:forces:R:3 n_minim_iter=5 energy=-64.804212869176 stress="-2.307820452708018e-05 0.0 0.0 0.0 1.6436389745151825e-05 0.0 0.0 0.0 0.00016449000785877002" free_energy=-64.804212869176 pbc="T T T"
P        3.19072801       0.51221538      10.45891960       0.00000000 NULL      -0.00705400       0.00698800       0.04133300
P        1.95426733       0.51221538       3.50592273       0.00000000 NULL       0.00705400       0.00698800      -0.04133300
P        0.61823034       0.51221538      10.48834390       0.00000000 NULL      -0.00705500       0.00698800      -0.04133200
P        4.52676500       0.51221538       3.47649844       0.00000000 NULL       0.00705500       0.00698800       0.04133200
P        3.36198981       2.17382143       8.78513138       0.00000000 NULL      -0.02390300      -0.03686400      -0.04530800
P        1.78300553       2.17382143       5.17971095       0.00000000 NULL       0.02390300      -0.03686400       0.04530800
P        0.78949214       2.17382143      12.16213212       0.00000000 NULL      -0.02390100      -0.03686400       0.04530800
P        4.35550320       2.17382143       1.80271021       0.00000000 NULL       0.02390100      -0.03686400      -0.04530800
P        3.02843128       2.16499801      12.13538877       0.00000000 NULL       0.01900000       0.02987600       0.04714200
P        2.11656406       2.16499801       1.82945356       0.00000000 NULL      -0.01900000       0.02987600      -0.04714200
P        0.45593361       2.16499801       8.81187473       0.00000000 NULL       0.01900200       0.02987600      -0.04714200
P        4.68906173       2.16499801       5.15296760       0.00000000 NULL      -0.01900200       0.02987600       0.04714200
12
Lattice="5.140469622299447 0.0 0.0 0.0 3.310372407072835 0.0 0.0 0.0 13.70954215463762" Properties=species:S:1:pos:R:3:initial_magmoms:R:1:castep_labels:S:1:forces:R:3 n_minim_iter=6 energy=-64.810066335158 stress="-7.334110250967229e-05 0.0 0.0 0.0 -0.0001711578155003632 -0.0 0.0 -0.0 -2.9147837350424984e-05" free_energy=-64.810066335158 pbc="T T T"
P        3.19194197       0.51087862      10.28195611       0.00000000 NULL      -0.02760200       0.01487800      -0.02949500
P        1.94852765       0.51087862       3.42758604       0.00000000 NULL       0.02760200       0.01487800       0.02949500
P        0.62170716       0.51087862      10.28235712       0.00000000 NULL      -0.02760200       0.01487800       0.02949400
P        4.51876247       0.51087862       3.42718503       0.00000000 NULL       0.02760200       0.01487800      -0.02949400
P        3.35126851       2.16777805       8.59578276       0.00000000 NULL       0.00385900       0.00752700       0.02340800
P        1.78920111       2.16777805       5.11375939       0.00000000 NULL      -0.00385900       0.00752700      -0.02340800
P        0.78103370       2.16777805      11.96853047       0.00000000 NULL       0.00385700       0.00752700      -0.02340700
P        4.35943592       2.16777805       1.74101168       0.00000000 NULL      -0.00385700       0.00752700       0.02340700
P        3.02194051       2.17156836      11.95132281       0.00000000 NULL       0.01612300      -0.02240500       0.01594100
P        2.11852911       2.17156836       1.75821934       0.00000000 NULL      -0.01612300      -0.02240500      -0.01594100
P        0.45170570       2.17156836       8.61299042       0.00000000 NULL       0.01612100      -0.02240500      -0.01594100
P        4.68876392       2.17156836       5.09655174       0.00000000 NULL      -0.01612000      -0.02240500       0.01594100
12
Lattice="5.1379818846783705 0.0 0.0 0.0 3.310341309621284 0.0 0.0 0.0 13.692077525456599" Properties=species:S:1:pos:R:3:initial_magmoms:R:1:castep_labels:S:1:forces:R:3 n_minim_iter=7 energy=-64.810794578949 stress="-2.1684863969761657e-05 0.0 -0.0 0.0 -0.00015900802233668795 0.0 -0.0 0.0 -4.251092144567137e-05" free_energy=-64.810794578949 pbc="T T T"
P        3.18653368       0.51307198      10.26686687       0.00000000 NULL      -0.00686600       0.00136300      -0.00393500
P        1.95144821       0.51307198       3.42521066       0.00000000 NULL       0.00686600       0.00136300       0.00393500
P        0.61754274       0.51307198      10.27124942       0.00000000 NULL      -0.00686600       0.00136300       0.00393400
P        4.52043915       0.51307198       3.42082811       0.00000000 NULL       0.00686600       0.00136300      -0.00393400
P        3.34926088       2.16749004       8.58525214       0.00000000 NULL       0.00369700       0.00750400       0.00470300
P        1.78872100       2.16749004       5.10682539       0.00000000 NULL      -0.00369700       0.00750400      -0.00470300
P        0.78026994       2.16749004      11.95286415       0.00000000 NULL       0.00369700       0.00750400      -0.00470200
P        4.35771195       2.16749004       1.73921338       0.00000000 NULL      -0.00369700       0.00750400       0.00470200
P        3.02294941       2.16961744      11.94122509       0.00000000 NULL      -0.00454800      -0.00886700      -0.00749200
P        2.11503247       2.16961744       1.75085244       0.00000000 NULL       0.00454800      -0.00886700       0.00749200
P        0.45395847       2.16961744       8.59689120       0.00000000 NULL      -0.00454900      -0.00886700       0.00749200
P        4.68402341       2.16961744       5.09518632       0.00000000 NULL       0.00454900      -0.00886700      -0.00749200
12
Lattice="5.1390900384599005 0.0 0.0 0.0 3.3106232814191965 0.0 0.0 0.0 13.701816824608578" Properties=species:S:1:pos:R:3:initial_magmoms:R:1:castep_labels:S:1:forces:R:3 n_minim_iter=8 energy=-64.810921349155 stress="-4.31542791454426e-05 -0.0 -0.0 -0.0 -0.00011221828453725432 0.0 -0.0 0.0 -4.4569876771485946e-05" free_energy=-64.810921349155 pbc="T T T"
P        3.18479300       0.51372570      10.27472990       0.00000000 NULL      -0.00028400      -0.00242200      -0.01364700
P        1.95429704       0.51372570       3.42708692       0.00000000 NULL       0.00028400      -0.00242200       0.01364700
P        0.61524798       0.51372570      10.27799534       0.00000000 NULL      -0.00028400      -0.00242200       0.01364700
P        4.52384206       0.51372570       3.42382149       0.00000000 NULL       0.00028400      -0.00242200      -0.01364700
P        3.35042609       2.16855444       8.59176969       0.00000000 NULL      -0.00425600       0.00023000       0.00709000
P        1.78866395       2.16855444       5.11004714       0.00000000 NULL       0.00425600       0.00023000      -0.00709000
P        0.78088107       2.16855444      11.96095555       0.00000000 NULL      -0.00425600       0.00023000      -0.00709000
P        4.35820897       2.16855444       1.74086128       0.00000000 NULL       0.00425600       0.00023000       0.00709000
P        3.02276070       2.16831246      11.94736428       0.00000000 NULL      -0.00315000       0.00219200      -0.00217300
P        2.11632934       2.16831246       1.75445255       0.00000000 NULL       0.00315000       0.00219200       0.00217300
P        0.45321568       2.16831246       8.60536096       0.00000000 NULL      -0.00314900       0.00219200       0.00217300
P        4.68587436       2.16831246       5.09645586       0.00000000 NULL       0.00314900       0.00219200      -0.00217300
12
Lattice="5.140558194106197 0.0 0.0 0.0 3.311448559881752 0.0 0.0 0.0 13.743153431378147" Properties=species:S:1:pos:R:3:initial_magmoms:R:1:castep_labels:S:1:forces:R:3 n_minim_iter=9 energy=-64.811223274539 stress="-5.826143000187729e-05 -0.0 0.0 -0.0 -5.086654563626851e-06 -0.0 0.0 -0.0 -0.0001225499044867074" free_energy=-64.811223274539 pbc="T T T"
P        3.18122566       0.51321050      10.30142152       0.00000000 NULL      -0.00066800       0.00142800       0.00569400
P        1.95933254       0.51321050       3.44173191       0.00000000 NULL       0.00066800       0.00142800      -0.00569400
P        0.61094656       0.51321050      10.31330863       0.00000000 NULL      -0.00066900       0.00142800      -0.00569300
P        4.52961163       0.51321050       3.42984480       0.00000000 NULL       0.00066800       0.00142800       0.00569300
P        3.34893456       2.16936529       8.62144548       0.00000000 NULL      -0.01006100      -0.00122100      -0.00082000
P        1.79162363       2.16936529       5.12170795       0.00000000 NULL       0.01006100      -0.00122100       0.00082000
P        0.77865547       2.16936529      11.99328467       0.00000000 NULL      -0.01006000      -0.00122100       0.00081900
P        4.36190273       2.16936529       1.74986876       0.00000000 NULL       0.01006000      -0.00122100      -0.00081900
P        3.01967220       2.16922597      11.97586776       0.00000000 NULL       0.00235800      -0.00020600       0.00038700
P        2.12088600       2.16922597       1.76728567       0.00000000 NULL      -0.00235800      -0.00020600      -0.00038700
P        0.44939310       2.16922597       8.63886239       0.00000000 NULL       0.00235900      -0.00020600      -0.00038800
P        4.69116510       2.16922597       5.10429104       0.00000000 NULL      -0.00235900      -0.00020600       0.00038800
12
Lattice="5.1389401538060335 0.0 0.0 0.0 3.3115433383369455 0.0 0.0 0.0 13.756561614575665" Properties=species:S:1:pos:R:3:initial_magmoms:R:1:castep_labels:S:1:forces:R:3 n_minim_iter=10 energy=-64.811284109458 stress="2.3920715806574295e-06 0.0 0.0 0.0 2.3194551219589005e-05 0.0 0.0 0.0 -0.00010191933556158261" free_energy=-64.811284109458 pbc="T T T"
P        3.17925974       0.51331484      10.31125390       0.00000000 NULL      -0.00450500       0.00083100       0.00636600
P        1.95968041       0.51331484       3.44530771       0.00000000 NULL       0.00450500       0.00083100      -0.00636600
P        0.60978966       0.51331484      10.32358852       0.00000000 NULL      -0.00450500       0.00083100      -0.00636600
P        4.52915049       0.51331484       3.43297310       0.00000000 NULL       0.00450500       0.00083100       0.00636600
P        3.34495630       2.17001775       8.63124309       0.00000000 NULL      -0.00048500      -0.00572300      -0.00083600
P        1.79398386       2.17001775       5.12531852       0.00000000 NULL       0.00048500      -0.00572300       0.00083600
P        0.77548622       2.17001775      12.00359933       0.00000000 NULL      -0.00048400      -0.00572300       0.00083500
P        4.36345393       2.17001775       1.75296228       0.00000000 NULL       0.00048400      -0.00572300      -0.00083500
P        3.01777519       2.16860832      11.98577565       0.00000000 NULL      -0.00308500       0.00489200       0.00293500
P        2.12116496       2.16860832       1.77078596       0.00000000 NULL       0.00308500       0.00489200      -0.00293500
P        0.44830511       2.16860832       8.64906677       0.00000000 NULL      -0.00308400       0.00489200      -0.00293500
P        4.69063504       2.16860832       5.10749484       0.00000000 NULL       0.00308400       0.00489200       0.00293500
