24
Lattice="6.7965227718440495 0.0 0.0 0.0 4.372999951191472 0.0 0.0 0.0 14.979957245305878" Properties=species:S:1:pos:R:3:initial_magmoms:R:1:castep_labels:S:1:forces:R:3 n_minim_iter=1 energy=-129.109715054883 stress="-4.307961048296858e-05 0.0 -0.0 0.0 -0.00014377090026146085 -0.0 -0.0 -0.0 3.324182665004875e-05" free_energy=-129.109715054883 pbc="T T T"
P        4.28759075       3.12016784       2.84674225       0.00000000 NULL       0.00045300      -0.00068400       0.00230500
P        0.88932936       3.43933208      12.13321500       0.00000000 NULL       0.00045200       0.00068400      -0.00230500
P        5.90719341       1.25283211      10.33672087       0.00000000 NULL      -0.00045200       0.00068400       0.00230500
P        2.50893203       0.93366787       4.64323638       0.00000000 NULL      -0.00045300      -0.00068400      -0.00230500
P        5.46644063       2.66221976       8.65811982       0.00000000 NULL       0.00063400       0.00612300      -0.00399700
P        2.06817924       3.89728017       6.32183742       0.00000000 NULL       0.00063400      -0.00612300       0.00399700
P        4.72834353       1.71078019       1.16814120       0.00000000 NULL      -0.00063400      -0.00612300      -0.00399700
P        1.33008215       0.47571978      13.81181605       0.00000000 NULL      -0.00063400       0.00612300       0.00399700
P        6.24735751       3.22742603      15.38647002       0.00000000 NULL      -0.00153900       0.00650100      -0.00480000
P        2.84909612       3.33207389      -0.40651277       0.00000000 NULL      -0.00154000      -0.00650100       0.00479900
P        3.94742665       1.14557392       7.89649139       0.00000000 NULL       0.00154000      -0.00650100      -0.00480000
P        0.54916527       1.04092606       7.08346585       0.00000000 NULL       0.00153900       0.00650100       0.00480000
P        2.51815658       4.02247935       1.84758788       0.00000000 NULL       0.00516500      -0.00275600       0.00300800
P        5.91641797       2.53702057      13.13236936       0.00000000 NULL       0.00516700       0.00275700      -0.00300800
P        0.88010481       0.35052060       9.33756651       0.00000000 NULL      -0.00516700       0.00275700       0.00300800
P        4.27836619       1.83597938       5.64239074       0.00000000 NULL      -0.00516500      -0.00275600      -0.00300700
P        5.44630786       0.02835449       6.31167307       0.00000000 NULL       0.00482400       0.00355800      -0.00027000
P        2.04804647       2.15814549       8.66828418       0.00000000 NULL       0.00482200      -0.00355800       0.00027000
P        4.74847630       4.34464546      13.80165169       0.00000000 NULL      -0.00482200      -0.00355800      -0.00027100
P        1.35021492       2.21485446       1.17830556       0.00000000 NULL      -0.00482400       0.00355800       0.00027100
P        5.93309266       4.58200819       2.27760968       0.00000000 NULL       0.00156000       0.00010100      -0.00011500
P        2.53483127       1.97749174      12.70234756       0.00000000 NULL       0.00155900      -0.00010100       0.00011500
P        4.26169150      -0.20900823       9.76758831       0.00000000 NULL      -0.00155900      -0.00010100      -0.00011600
P        0.86343012       2.39550821       5.21236894       0.00000000 NULL      -0.00156000       0.00010100       0.00011600
