27
Lattice="8.316119999999994 -1.3517433479513718e-15 0.0 -4.158059999999997 7.201971180919844 0.0 0.0 0.0 10.16928" Properties=species:S:1:pos:R:3:initial_magmoms:R:1:castep_labels:S:1 n_minim_iter=1 pbc="T T T"
P        7.18438048       1.69114743       1.21887160       0.00000000 NULL
P        3.25935313       5.37628229       1.21887160       0.00000000 NULL
P        2.03044640       0.13454146       1.21887160       0.00000000 NULL
P       -0.03821590       2.65606393       9.10577670       0.00000000 NULL
P        1.87694912       5.84084327       9.10577670       0.00000000 NULL
P       -1.83873321       5.90703516       9.10577670       0.00000000 NULL
P        2.09602274       5.13153914       3.34775138       0.00000000 NULL
P       -1.33399462       6.45141055       3.34775138       0.00000000 NULL
P       -0.76202811       2.82099268       3.34775138       0.00000000 NULL
P        0.78239013       7.00818846       6.48834131       0.00000000 NULL
P       -2.30240430       4.37544668       6.48834131       0.00000000 NULL
P        1.52001418       3.02030723       6.48834131       0.00000000 NULL
P        5.53999873       2.62785380       7.36835318       0.00000000 NULL
P        3.27033249       3.48385274       7.36835318       0.00000000 NULL
P        3.66384879       1.09026465       7.36835318       0.00000000 NULL
P        2.60980761       6.83482261       7.36669355       0.00000000 NULL
P       -3.06597381       6.04471956       7.36669355       0.00000000 NULL
P        0.45616621       1.52440019       7.36669355       0.00000000 NULL
P       -1.95471274       3.97636889       4.53885271       0.00000000 NULL
P        1.69177990       3.52095584       4.53885271       0.00000000 NULL
P        0.26293285       6.90661763       4.53885271       0.00000000 NULL
P       -0.37466158       3.13463995       5.72753680       0.00000000 NULL
P        1.63071297       5.31018476       5.72753680       0.00000000 NULL
P       -1.25605138       5.95911766       5.72753680       0.00000000 NULL
P       -3.45868055       6.21118520       0.14435598       0.00000000 NULL
P        0.50835611       1.10107336       0.14435598       0.00000000 NULL
P        2.95032445       7.09168381       0.14435598       0.00000000 NULL
27
Lattice="8.366305850129995 1.4788421461329685e-15 0.0 -4.183152925065 7.245433402042942 0.0 0.0 0.0 10.233918812673442" Properties=species:S:1:pos:R:3:initial_magmoms:R:1:castep_labels:S:1 n_minim_iter=2 pbc="T T T"
P        7.22749781       1.70154482       1.22672526       0.00000000 NULL
P        3.27897591       5.40842429       1.22672526       0.00000000 NULL
P        2.04298507       0.13546429       1.22672526       0.00000000 NULL
P       -0.03850659       2.67227362       9.16356979       0.00000000 NULL
P        1.88814939       5.87594891       9.16356979       0.00000000 NULL
P       -1.84964279       5.94264429       9.16356979       0.00000000 NULL
P        2.10865255       5.16273526       3.36898337       0.00000000 NULL
P       -1.34223324       6.49021245       3.36898337       0.00000000 NULL
P       -0.76641931       2.83791909       3.36898337       0.00000000 NULL
P        0.78703966       7.05062681       6.52976439       0.00000000 NULL
P       -2.31638883       4.40171634       6.52976439       0.00000000 NULL
P        1.52934918       3.03852366       6.52976439       0.00000000 NULL
P        5.57328935       2.64344039       7.41536084       0.00000000 NULL
P        3.29037465       3.50488996       7.41536084       0.00000000 NULL
P        3.68579479       1.09710305       7.41536084       0.00000000 NULL
P        2.62576803       6.87607545       7.41359248       0.00000000 NULL
P       -3.08458710       6.08137750       7.41359248       0.00000000 NULL
P        0.45881908       1.53341386       7.41359248       0.00000000 NULL
P       -1.96672885       4.00046402       4.56737721       0.00000000 NULL
P        1.70201388       3.54196425       4.56737721       0.00000000 NULL
P        0.26471497       6.94843854       4.56737721       0.00000000 NULL
P       -0.37712038       3.15338594       5.76388590       0.00000000 NULL
P        1.64080079       5.34214460       5.76388590       0.00000000 NULL
P       -1.26368040       5.99533627       5.76388590       0.00000000 NULL
P       -3.47947258       6.24827770       0.14525509       0.00000000 NULL
P        0.51172200       1.10798290       0.14525509       0.00000000 NULL
P        2.96775059       7.13460621       0.14525509       0.00000000 NULL
27
Lattice="8.83195856244513 3.320550005801339e-16 -7.72577487855719e-58 -4.415979281222567 7.648700480248977 8.967010496889964e-42 6.90566914062636e-57 -2.7471422391665036e-41 10.836057424627676" Properties=species:S:1:pos:R:3:initial_magmoms:R:1:castep_labels:S:1 n_minim_iter=3 pbc="T T T"
P        7.62748854       1.79805312       1.29989626       0.00000000 NULL
P        3.46105462       5.70657228       1.29989626       0.00000000 NULL
P        2.15939469       0.14407508       1.29989626       0.00000000 NULL
P       -0.04121379       2.82267981       9.70181246       0.00000000 NULL
P        1.99207377       6.20166839       9.70181246       0.00000000 NULL
P       -1.95085996       6.27305277       9.70181246       0.00000000 NULL
P        2.22573110       5.45232627       3.56687815       0.00000000 NULL
P       -1.41873932       6.85007702       3.56687815       0.00000000 NULL
P       -0.80699177       2.99499767       3.56687815       0.00000000 NULL
P        0.83013008       7.44452279       6.91577500       0.00000000 NULL
P       -2.44623161       4.64535282       6.91577500       0.00000000 NULL
P        1.61610154       3.20752535       6.91577500       0.00000000 NULL
P        5.88201150       2.78792807       7.85336781       0.00000000 NULL
P        3.47653629       3.70000735       7.85336781       0.00000000 NULL
P        3.88939006       1.16076507       7.85336781       0.00000000 NULL
P        2.77385736       7.25881387       7.85056382       0.00000000 NULL
P       -3.25726661       6.42152448       7.85056382       0.00000000 NULL
P        0.48340926       1.61706261       7.85056382       0.00000000 NULL
P       -2.07835975       4.22412939       4.83284420       0.00000000 NULL
P        1.79695580       3.73672344       4.83284420       0.00000000 NULL
P        0.28140396       7.33654814       4.83284420       0.00000000 NULL
P       -0.39999731       3.32718313       6.10240800       0.00000000 NULL
P        1.73455283       5.63870108       6.10240800       0.00000000 NULL
P       -1.33455551       6.33151676       6.10240800       0.00000000 NULL
P       -3.67227170       6.59222563       0.15363770       0.00000000 NULL
P        0.54308028       1.17230709       0.15363770       0.00000000 NULL
P        3.12919143       7.53286825       0.15363770       0.00000000 NULL
27
Lattice="9.009295127037912 3.352280250159697e-16 -1.7975396690526876e-43 -4.504647563518958 7.8022784502061855 2.885829169101889e-41 -2.20542736236621e-43 -4.3412479365933266e-41 11.022259086760595" Properties=species:S:1:pos:R:3:initial_magmoms:R:1:castep_labels:S:1 n_minim_iter=4 pbc="T T T"
P        7.77992656       1.83463932       1.32231905       0.00000000 NULL
P        3.53048759       5.82029438       1.32231905       0.00000000 NULL
P        2.20352854       0.14734475       1.32231905       0.00000000 NULL
P       -0.04211149       2.87970828       9.86680137       0.00000000 NULL
P        2.03180279       6.32595469       9.86680137       0.00000000 NULL
P       -1.98969129       6.39889393       9.86680137       0.00000000 NULL
P        2.26944983       5.56332443       3.62927859       0.00000000 NULL
P       -1.44805763       6.98601743       3.62927859       0.00000000 NULL
P       -0.82139218       3.05521504       3.62927859       0.00000000 NULL
P        0.84628648       7.59526282       7.03633046       0.00000000 NULL
P       -2.49618622       4.73755263       7.03633046       0.00000000 NULL
P        1.64989975       3.27174145       7.03633046       0.00000000 NULL
P        5.99779059       2.84237905       7.98935100       0.00000000 NULL
P        3.54882737       3.77304949       7.98935100       0.00000000 NULL
P        3.96732474       1.18684991       7.98935100       0.00000000 NULL
P        2.82958408       7.40396805       7.98655776       0.00000000 NULL
P       -3.32216889       6.55078612       7.98655776       0.00000000 NULL
P        0.49258482       1.64980273       7.98655776       0.00000000 NULL
P       -2.12106937       4.31000177       4.91363531       0.00000000 NULL
P        1.83261123       3.81037760       4.91363531       0.00000000 NULL
P        0.28845815       7.48417753       4.91363531       0.00000000 NULL
P       -0.40953312       3.39245712       6.20618704       0.00000000 NULL
P        1.77146008       5.75138380       6.20618704       0.00000000 NULL
P       -1.36192695       6.46071598       6.20618704       0.00000000 NULL
P       -3.74426585       6.72152010       0.15629500       0.00000000 NULL
P        0.55577334       1.19888906       0.15629500       0.00000000 NULL
P        3.18849252       7.68414775       0.15629500       0.00000000 NULL
27
Lattice="9.10247739507622 5.617894621183038e-16 -1.8107978090543787e-43 -4.551238697538111 7.88297666150961 2.1238429243493053e-41 -2.239518373276816e-43 -5.988640385529567e-41 11.04701815050744" Properties=species:S:1:pos:R:3:initial_magmoms:R:1:castep_labels:S:1 n_minim_iter=5 pbc="T T T"
P        7.86028266       1.85363712       1.32515430       0.00000000 NULL
P        3.56703923       5.88038591       1.32515430       0.00000000 NULL
P        2.22639420       0.14895364       1.32515430       0.00000000 NULL
P       -0.04244088       2.90921002       9.88637798       0.00000000 NULL
P        2.05300936       6.39161677       9.88637798       0.00000000 NULL
P       -2.01056847       6.46512654       9.88637798       0.00000000 NULL
P        2.29154492       5.62249206       3.63936419       0.00000000 NULL
P       -1.46375472       7.05626675       3.63936419       0.00000000 NULL
P       -0.82779020       3.08719452       3.63936419       0.00000000 NULL
P        0.85438895       7.67520946       7.05441080       0.00000000 NULL
P       -2.52288214       4.78529447       7.05441080       0.00000000 NULL
P        1.66849320       3.30544940       7.05441080       0.00000000 NULL
P        6.05630426       2.87034965       8.00822471       0.00000000 NULL
P        3.58852955       3.80973851       8.00822471       0.00000000 NULL
P        4.00888229       1.20288850       8.00822471       0.00000000 NULL
P        2.85802439       7.47927668       8.00606545       0.00000000 NULL
P       -3.35501710       6.61846005       8.00606545       0.00000000 NULL
P        0.49699272       1.66821660       8.00606545       0.00000000 NULL
P       -2.14355155       4.35587884       4.92235833       0.00000000 NULL
P        1.85071275       3.84866714       4.92235833       0.00000000 NULL
P        0.29283881       7.56140734       4.92235833       0.00000000 NULL
P       -0.41555269       3.42559227       6.21830672       0.00000000 NULL
P        1.79236512       5.81030134       6.21830672       0.00000000 NULL
P       -1.37681242       6.53005971       6.21830672       0.00000000 NULL
P       -3.78037528       6.78721777       0.15680056       0.00000000 NULL
P        0.56352334       1.21546675       0.15680056       0.00000000 NULL
P        3.21685195       7.76326881       0.15680056       0.00000000 NULL
27
Lattice="9.13389600824685 -8.91534908436618e-16 -6.646840170419305e-44 -4.566948004123426 7.910185978667054 8.984900763286092e-42 -8.684104620501574e-44 -6.670877285856809e-41 10.986106582828054" Properties=species:S:1:pos:R:3:initial_magmoms:R:1:castep_labels:S:1 n_minim_iter=6 pbc="T T T"
P        7.88764958       1.85977413       1.31755274       0.00000000 NULL
P        3.57945958       5.90101785       1.31755274       0.00000000 NULL
P        2.23373486       0.14939400       1.31755274       0.00000000 NULL
P       -0.04239327       2.91865942       9.82915132       0.00000000 NULL
P        2.06051144       6.41414262       9.82915132       0.00000000 NULL
P       -2.01811816       6.48756992       9.82915132       0.00000000 NULL
P        2.29802162       5.64345517       3.62155723       0.00000000 NULL
P       -1.46943834       7.07860349       3.62155723       0.00000000 NULL
P       -0.82858327       3.09831330       3.62155723       0.00000000 NULL
P        0.85670055       7.70304514       7.01792353       0.00000000 NULL
P       -2.53243504       4.80058785       7.01792353       0.00000000 NULL
P        1.67573450       3.31673897       7.01792353       0.00000000 NULL
P        6.07332567       2.87902912       7.96486369       0.00000000 NULL
P        3.60392082       3.82013976       7.96486369       0.00000000 NULL
P        4.02359753       1.21101711       7.96486369       0.00000000 NULL
P        2.86670658       7.50361266       7.96346132       0.00000000 NULL
P       -3.36472446       6.64102037       7.96346132       0.00000000 NULL
P        0.49801789       1.67573893       7.96346132       0.00000000 NULL
P       -2.15129248       4.37219976       4.89302843       0.00000000 NULL
P        1.85615818       3.86101216       4.89302843       0.00000000 NULL
P        0.29513430       7.58716004       4.89302843       0.00000000 NULL
P       -0.41873104       3.43543420       6.18194730       0.00000000 NULL
P        1.80114024       5.82983716       6.18194730       0.00000000 NULL
P       -1.38240919       6.55510060       6.18194730       0.00000000 NULL
P       -3.79056890       6.80682988       0.15620212       0.00000000 NULL
P        0.56734487       1.22404207       0.15620212       0.00000000 NULL
P        3.22322405       7.78950001       0.15620212       0.00000000 NULL
27
Lattice="9.344178336744429 5.364693084735183e-16 1.2665569636309147e-42 -4.672089168372216 8.0922958171129 -1.4575596767409773e-42 1.511663284802941e-42 -6.571835801595282e-41 10.596067482203148" Properties=species:S:1:pos:R:3:initial_magmoms:R:1:castep_labels:S:1 n_minim_iter=7 pbc="T T T"
P        8.07134471       1.90013208       1.26801282       0.00000000 NULL
P        3.66294334       6.03992352       1.26801282       0.00000000 NULL
P        2.28197947       0.15224022       1.26801282       0.00000000 NULL
P       -0.04202227       2.98173178       9.46145757       0.00000000 NULL
P        2.11084484       6.56503757       9.46145757       0.00000000 NULL
P       -2.06882255       6.63782229       9.46145757       0.00000000 NULL
P        2.33967081       5.78564882       3.51023115       0.00000000 NULL
P       -1.50826509       7.22568577       3.51023115       0.00000000 NULL
P       -0.83140571       3.17325705       3.51023115       0.00000000 NULL
P        0.87158504       7.89079039       6.78654705       0.00000000 NULL
P       -2.59732828       4.90171541       6.78654705       0.00000000 NULL
P        1.72574324       3.39208584       6.78654705       0.00000000 NULL
P        6.18281839       2.93607785       7.68777016       0.00000000 NULL
P        3.71005114       3.88643887       7.68777016       0.00000000 NULL
P        4.12339798       1.26977910       7.68777016       0.00000000 NULL
P        2.92349199       7.66510750       7.69040844       0.00000000 NULL
P       -3.42783463       6.79156040       7.69040844       0.00000000 NULL
P        0.50434266       1.72792375       7.69040844       0.00000000 NULL
P       -2.20384082       4.48270801       4.70297018       0.00000000 NULL
P        1.89187057       3.94235967       4.70297018       0.00000000 NULL
P        0.31197026       7.75952396       4.70297018       0.00000000 NULL
P       -0.44147398       3.49913036       5.94723629       0.00000000 NULL
P        1.86249038       5.96040295       5.94723629       0.00000000 NULL
P       -1.42101639       6.72505832       5.94723629       0.00000000 NULL
P       -3.85583266       6.93498553       0.15333811       0.00000000 NULL
P        0.59413187       1.28555402       0.15333811       0.00000000 NULL
P        3.26170081       7.96405210       0.15333811       0.00000000 NULL
27
Lattice="9.260223761903516 -9.043744937428463e-16 1.2032219860068993e-42 -4.630111880951759 8.01958902253675 -1.849547918920354e-43 1.423930238161085e-42 -7.55731081960117e-41 10.613264094125697" Properties=species:S:1:pos:R:3:initial_magmoms:R:1:castep_labels:S:1 n_minim_iter=8 pbc="T T T"
P        8.00251622       1.87802254       1.26353682       0.00000000 NULL
P        3.63255043       5.99137107       1.26353682       0.00000000 NULL
P        2.25526900       0.15019542       1.26353682       0.00000000 NULL
P       -0.04206091       2.95483154       9.46741813       0.00000000 NULL
P        2.09218316       6.50574743       9.46741813       0.00000000 NULL
P       -2.05012224       6.57859907       9.46741813       0.00000000 NULL
P        2.30792109       5.74483466       3.53520125       0.00000000 NULL
P       -1.49902141       7.14588998       3.53520125       0.00000000 NULL
P       -0.80889966       3.14845341       3.53520125       0.00000000 NULL
P        0.85976422       7.82984557       6.81476091       0.00000000 NULL
P       -2.58061539       4.84924389       6.81476091       0.00000000 NULL
P        1.72085118       3.36008859       6.81476091       0.00000000 NULL
P        6.09892014       2.90337554       7.70443791       0.00000000 NULL
P        3.69636672       3.83013200       7.70443791       0.00000000 NULL
P        4.09504879       1.28608148       7.70443791       0.00000000 NULL
P        2.88997566       7.58890156       7.70224630       0.00000000 NULL
P       -3.38705748       6.72793057       7.70224630       0.00000000 NULL
P        0.49708184       1.72234591       7.70224630       0.00000000 NULL
P       -2.18771987       4.44992429       4.69387061       0.00000000 NULL
P        1.87022434       3.90000589       4.69387061       0.00000000 NULL
P        0.31749554       7.68924787       4.69387061       0.00000000 NULL
P       -0.44754545       3.45510796       5.94320479       0.00000000 NULL
P        1.86167335       5.90444931       5.94320479       0.00000000 NULL
P       -1.41412789       6.67962078       5.94320479       0.00000000 NULL
P       -3.80325300       6.85462084       0.15991000       0.00000000 NULL
P        0.59546260       1.29856488       0.15991000       0.00000000 NULL
P        3.20779041       7.88599232       0.15991000       0.00000000 NULL
27
Lattice="9.349646761888415 9.328111008799665e-16 7.302207481948788e-43 -4.67482338094421 8.097031612206287 -1.6293870824112048e-42 8.834121109214947e-43 -8.500224557092341e-41 10.706816129270353" Properties=species:S:1:pos:R:3:initial_magmoms:R:1:castep_labels:S:1 n_minim_iter=9 pbc="T T T"
P        8.08065323       1.89448543       1.27273143       0.00000000 NULL
P        3.66864765       6.05080826       1.27273143       0.00000000 NULL
P        2.27516928       0.15173793       1.27273143       0.00000000 NULL
P       -0.04285070       2.98438007       9.54776135       0.00000000 NULL
P        2.11169978       6.56773179       9.54776135       0.00000000 NULL
P       -2.06884907       6.64195137       9.54776135       0.00000000 NULL
P        2.32639646       5.80434424       3.57281306       0.00000000 NULL
P       -1.51508441       7.20957793       3.57281306       0.00000000 NULL
P       -0.81131204       3.18014106       3.57281306       0.00000000 NULL
P        0.86652762       7.90827789       6.87915091       0.00000000 NULL
P       -2.60720998       4.89332759       6.87915091       0.00000000 NULL
P        1.74068237       3.39245774       6.87915091       0.00000000 NULL
P        6.14871987       2.92838578       7.77421866       0.00000000 NULL
P        3.73923036       3.86075472       7.77421866       0.00000000 NULL
P        4.13651992       1.30789112       7.77421866       0.00000000 NULL
P        2.91644834       7.66042609       7.76990087       0.00000000 NULL
P       -3.41752438       6.79253691       7.76990087       0.00000000 NULL
P        0.50107605       1.74110022       7.76990087       0.00000000 NULL
P       -2.21072502       4.49596615       4.73045052       0.00000000 NULL
P        1.88656500       3.93450451       4.73045052       0.00000000 NULL
P        0.32416003       7.76359257       4.73045052       0.00000000 NULL
P       -0.45535449       3.48442937       5.99097170       0.00000000 NULL
P        1.88489628       5.96046837       5.99097170       0.00000000 NULL
P       -1.42954178       6.74916549       5.99097170       0.00000000 NULL
P       -3.83445191       6.91464701       0.16338454       0.00000000 NULL
P        0.60378938       1.31897534       0.16338454       0.00000000 NULL
P        3.23066254       7.96044088       0.16338454       0.00000000 NULL
27
Lattice="9.2978708736654 -3.889098336363321e-16 1.1604602280026125e-42 -4.648935436832701 8.052192377701653 1.7419221519608782e-42 1.377256559359562e-42 -7.700448666236765e-41 10.629420912535206" Properties=species:S:1:pos:R:3:initial_magmoms:R:1:castep_labels:S:1 n_minim_iter=10 pbc="T T T"
P        8.03664031       1.88308574       1.26269756       0.00000000 NULL
P        3.64875064       6.01839180       1.26269756       0.00000000 NULL
P        2.26141537       0.15071484       1.26269756       0.00000000 NULL
P       -0.04262375       2.96777030       9.47750110       0.00000000 NULL
P        2.10008285       6.53139398       9.47750110       0.00000000 NULL
P       -2.05745909       6.60522048       9.47750110       0.00000000 NULL
P        2.31211193       5.77347267       3.54963831       0.00000000 NULL
P       -1.50709452       7.16780371       3.54963831       0.00000000 NULL
P       -0.80501740       3.16310838       3.54963831       0.00000000 NULL
P        0.86110869       7.86534764       6.83083364       0.00000000 NULL
P       -2.59320976       4.86526056       6.83083364       0.00000000 NULL
P        1.73210108       3.37377657       6.83083364       0.00000000 NULL
P        6.11111921       2.91134119       7.71857771       0.00000000 NULL
P        3.72101585       3.83671389       7.71857771       0.00000000 NULL
P        4.11467126       1.30413731       7.71857771       0.00000000 NULL
P        2.89936117       7.61713164       7.71375814       0.00000000 NULL
P       -3.39737464       6.75454698       7.71375814       0.00000000 NULL
P        0.49801349       1.73270614       7.71375814       0.00000000 NULL
P       -2.19879636       4.47211186       4.69487963       0.00000000 NULL
P        1.87537115       3.91192295       4.69487963       0.00000000 NULL
P        0.32342522       7.72034996       4.69487963       0.00000000 NULL
P       -0.45407403       3.46379936       5.94570978       0.00000000 NULL
P        1.87623422       5.92705306       5.94570978       0.00000000 NULL
P       -1.42216018       6.71353235       5.94570978       0.00000000 NULL
P       -3.81117356       6.87448349       0.16297328       0.00000000 NULL
P        0.60104489       1.31437751       0.16297328       0.00000000 NULL
P        3.21012869       7.91552376       0.16297328       0.00000000 NULL
27
Lattice="9.300455753035388 -1.236986980918659e-15 1.1727346142748094e-42 -4.650227876517695 8.05443094890178 -2.0405037360329236e-42 1.3919974899353423e-42 -6.324288997567655e-41 10.626810216554071" Properties=species:S:1:pos:R:3:initial_magmoms:R:1:castep_labels:S:1 n_minim_iter=11 pbc="T T T"
P        8.03935093       1.88284949       1.26161081       0.00000000 NULL
P        3.65018481       6.02085739       1.26161081       0.00000000 NULL
P        2.26114791       0.15072408       1.26161081       0.00000000 NULL
P       -0.04275686       2.96886743       9.47406573       0.00000000 NULL
P        2.10049170       6.53296871       9.47406573       0.00000000 NULL
P       -2.05773483       6.60702576       9.47406573       0.00000000 NULL
P        2.31134363       5.77647032       3.55124913       0.00000000 NULL
P       -1.50801397       7.16787809       3.55124913       0.00000000 NULL
P       -0.80332965       3.16451349       3.55124913       0.00000000 NULL
P        0.86074938       7.86847744       6.83059134       0.00000000 NULL
P       -2.59444816       4.86562306       6.83059134       0.00000000 NULL
P        1.73369879       3.37476140       6.83059134       0.00000000 NULL
P        6.10943058       2.91113194       7.71732639       0.00000000 NULL
P        3.72462625       3.83535612       7.71732639       0.00000000 NULL
P        4.11662680       1.30794289       7.71732639       0.00000000 NULL
P        2.89954526       7.61858935       7.71175227       0.00000000 NULL
P       -3.39743666       6.75621613       7.71175227       0.00000000 NULL
P        0.49789141       1.73405643       7.71175227       0.00000000 NULL
P       -2.19998086       4.47446072       4.69216321       0.00000000 NULL
P        1.87522165       3.91196128       4.69216321       0.00000000 NULL
P        0.32475921       7.72243990       4.69216321       0.00000000 NULL
P       -0.45545807       3.46338105       5.94247780       0.00000000 NULL
P        1.87858095       5.92830217       5.94247780       0.00000000 NULL
P       -1.42312287       6.71717869       5.94247780       0.00000000 NULL
P       -3.81026888       6.87435943       0.16370121       0.00000000 NULL
P        0.60199242       1.31746159       0.16370121       0.00000000 NULL
P        3.20827647       7.91704088       0.16370121       0.00000000 NULL
27
Lattice="9.30733535991688 -1.4194209964287992e-15 1.3170575847426714e-42 -4.653667679958441 8.060388863229203 1.8132226980647482e-41 1.5622050762587807e-42 -8.352721340428812e-41 10.592924533991074" Properties=species:S:1:pos:R:3:initial_magmoms:R:1:castep_labels:S:1 n_minim_iter=12 pbc="T T T"
P        8.04951468       1.87750560       1.25082941       0.00000000 NULL
P        3.65661048       6.03233140       1.25082941       0.00000000 NULL
P        2.25487789       0.15055186       1.25082941       0.00000000 NULL
P       -0.04387946       2.97350076       9.43444151       0.00000000 NULL
P        2.10048022       6.53563775       9.43444151       0.00000000 NULL
P       -2.05660075       6.61163922       9.43444151       0.00000000 NULL
P        2.30079768       5.79273593       3.56142613       0.00000000 NULL
P       -1.51338762       7.15657014       3.56142613       0.00000000 NULL
P       -0.78741005       3.17147167       3.56142613       0.00000000 NULL
P        0.85617463       7.88231135       6.82092729       0.00000000 NULL
P       -2.60070149       4.86070216       6.82092729       0.00000000 NULL
P        1.74452688       3.37776422       6.82092729       0.00000000 NULL
P        6.08469364       2.90447656       7.69827536       0.00000000 NULL
P        3.74963806       3.81726099       7.69827536       0.00000000 NULL
P        4.12667135       1.33865132       7.69827536       0.00000000 NULL
P        2.89637005       7.61864944       7.68607905       0.00000000 NULL
P       -3.39246129       6.75939418       7.68607905       0.00000000 NULL
P        0.49609126       1.74273411       7.68607905       0.00000000 NULL
P       -2.20655680       4.48735951       4.66393886       0.00000000 NULL
P        1.87077876       3.90577486       4.66393886       0.00000000 NULL
P        0.33577806       7.72764336       4.66393886       0.00000000 NULL
P       -0.46667206       3.45415084       5.90824491       0.00000000 NULL
P        1.89562134       5.92916358       5.90824491       0.00000000 NULL
P       -1.42894927       6.73746331       5.90824491       0.00000000 NULL
P       -3.79627374       6.86211130       0.16980669       0.00000000 NULL
P        0.60904185       1.34166372       0.16980669       0.00000000 NULL
P        3.18723190       7.91700272       0.16980669       0.00000000 NULL
27
Lattice="9.22416239492388 -1.6037285951817496e-15 1.2214540140715974e-42 -4.612081197461941 7.988358962637191 3.202735796826089e-41 1.4355374896358635e-42 -1.126693625571094e-40 10.620473117236616" Properties=species:S:1:pos:R:3:initial_magmoms:R:1:castep_labels:S:1 n_minim_iter=13 pbc="T T T"
P        8.00159933       1.81939584       1.21667952       0.00000000 NULL
P        3.64771972       6.01989037       1.21667952       0.00000000 NULL
P        2.18692455       0.14907276       1.21667952       0.00000000 NULL
P       -0.05234064       2.96743895       9.41452307       0.00000000 NULL
P        2.06837401       6.45931116       9.41452307       0.00000000 NULL
P       -2.01603335       6.54996782       9.41452307       0.00000000 NULL
P        2.21235096       5.80447339       3.68836270       0.00000000 NULL
P       -1.52091568       7.00207440       3.68836270       0.00000000 NULL
P       -0.69143526       3.17017014       3.68836270       0.00000000 NULL
P        0.81924915       7.84910366       6.89376328       0.00000000 NULL
P       -2.59506654       4.77329771       6.89376328       0.00000000 NULL
P        1.77581740       3.35431656       6.89376328       0.00000000 NULL
P        5.87855993       2.82970271       7.74963192       0.00000000 NULL
P        3.83428800       3.67613088       7.74963192       0.00000000 NULL
P        4.12339567       1.48252537       7.74963192       0.00000000 NULL
P        2.84774683       7.52875584       7.69355377       0.00000000 NULL
P       -3.33188603       6.69020214       7.69355377       0.00000000 NULL
P        0.48413921       1.75775994       7.69355377       0.00000000 NULL
P       -2.21535618       4.50062042       4.61129784       0.00000000 NULL
P        1.82210768       3.81949402       4.61129784       0.00000000 NULL
P        0.39324851       7.65660349       4.61129784       0.00000000 NULL
P       -0.52145877       3.36632889       5.84251350       0.00000000 NULL
P        1.95748426       5.85359797       5.84251350       0.00000000 NULL
P       -1.43602547       6.75679107       5.84251350       0.00000000 NULL
P       -3.68112605       6.71724797       0.20637893       0.00000000 NULL
P        0.63533684       1.44178630       0.20637893       0.00000000 NULL
P        3.04578922       7.81768365       0.20637893       0.00000000 NULL
27
Lattice="10.04097231552033 -2.062423785769037e-15 -8.235289456460895e-42 -5.020486157760165 8.695737103936867 3.05192188379851e-41 -9.594966929594914e-42 -1.4382201672443743e-40 12.654635263183804" Properties=species:S:1:pos:R:3:initial_magmoms:R:1:castep_labels:S:1 n_minim_iter=14 pbc="T T T"
P        8.71097565       1.96084368       1.44594342       0.00000000 NULL
P        3.98734406       6.56350436       1.44594342       0.00000000 NULL
P        2.36313878       0.17138906       1.44594342       0.00000000 NULL
P       -0.06342291       3.24855802      11.20336222       0.00000000 NULL
P        2.23886385       7.01653224      11.20336222       0.00000000 NULL
P       -2.17544092       7.12638395      11.20336222       0.00000000 NULL
P        2.37995211       6.34494242       4.40582053       0.00000000 NULL
P       -1.66437121       7.58436488       4.40582053       0.00000000 NULL
P       -0.71558088       3.46216691       4.40582053       0.00000000 NULL
P        0.87604486       8.54402638       8.21441656       0.00000000 NULL
P       -2.81688016       5.18240101       8.21441656       0.00000000 NULL
P        1.94083532       3.66504681       8.21441656       0.00000000 NULL
P        6.41564412       3.06930288       9.25045182       0.00000000 NULL
P        4.17505600       4.02145935       9.25045182       0.00000000 NULL
P        4.47075836       1.60497488       9.25045182       0.00000000 NULL
P        3.10046294       8.19879575       9.15690352       0.00000000 NULL
P       -3.63011071       7.28141889       9.15690352       0.00000000 NULL
P        0.52964778       1.91125957       9.15690352       0.00000000 NULL
P       -2.42469293       4.92566900       5.48027751       0.00000000 NULL
P        1.96707814       4.13305692       5.48027751       0.00000000 NULL
P        0.45761480       8.33274828       5.48027751       0.00000000 NULL
P       -0.59156216       3.65541894       6.97065222       0.00000000 NULL
P        2.15058158       6.35571977       6.97065222       0.00000000 NULL
P       -1.55901941       7.38033550       6.97065222       0.00000000 NULL
P       -3.99440567       7.28082062       0.25154732       0.00000000 NULL
P        0.71231338       1.59607001       0.25154732       0.00000000 NULL
P        3.28209230       8.51458358       0.25154732       0.00000000 NULL
27
Lattice="9.033907869335792 -1.2404241637664641e-15 -3.1408458795795145e-42 -4.516953934667897 7.8235937102929505 3.171091765532179e-41 -3.4376590345281806e-42 -1.1647341363439166e-40 11.160368747844672" Properties=species:S:1:pos:R:3:initial_magmoms:R:1:castep_labels:S:1 n_minim_iter=15 pbc="T T T"
P        7.84177821       1.75948943       1.27164547       0.00000000 NULL
P        3.58925622       5.91143443       1.27164547       0.00000000 NULL
P        2.11982738       0.15266986       1.27164547       0.00000000 NULL
P       -0.05448030       2.91717748       9.87738285       0.00000000 NULL
P        2.01784429       6.31782364       9.87738285       0.00000000 NULL
P       -1.96336397       6.41218630       9.87738285       0.00000000 NULL
P        2.13811261       5.70611391       3.89389977       0.00000000 NULL
P       -1.49374197       6.82219659       3.89389977       0.00000000 NULL
P       -0.64437063       3.11887693       3.89389977       0.00000000 NULL
P        0.78960247       7.68570071       7.24310932       0.00000000 NULL
P       -2.53385936       4.66455915       7.24310932       0.00000000 NULL
P        1.74425690       3.29692756       7.24310932       0.00000000 NULL
P        5.76787659       2.76273356       8.15770287       0.00000000 NULL
P        3.75737213       3.61376087       8.15770287       0.00000000 NULL
P        4.02561309       1.44709928       8.15770287       0.00000000 NULL
P        2.78302091       7.37386327       8.07866143       0.00000000 NULL
P       -3.26050943       6.54682888       8.07866143       0.00000000 NULL
P        0.47748853       1.72649528       8.07866143       0.00000000 NULL
P       -2.17498755       4.43115763       4.83519235       0.00000000 NULL
P        1.76695264       3.72442043       4.83519235       0.00000000 NULL
P        0.40803492       7.49160937       4.83519235       0.00000000 NULL
P       -0.53294274       3.29039859       6.14185085       0.00000000 NULL
P        1.93385655       5.71685246       6.14185085       0.00000000 NULL
P       -1.40091379       6.63993637       6.14185085       0.00000000 NULL
P       -3.59117898       6.55327845       0.22262159       0.00000000 NULL
P        0.63723781       1.43690226       0.22262159       0.00000000 NULL
P        2.95394118       7.65700671       0.22262159       0.00000000 NULL
27
Lattice="9.079244679703674 -1.1342749152552794e-15 -2.8802550610004974e-42 -4.539622339851838 7.862856539798093 4.93822992262063e-41 -3.155150210099592e-42 -1.3371289985371912e-40 11.096602983014716" Properties=species:S:1:pos:R:3:initial_magmoms:R:1:castep_labels:S:1 n_minim_iter=16 pbc="T T T"
P        7.88102699       1.76792288       1.26517383       0.00000000 NULL
P        3.60766506       5.94120814       1.26517383       0.00000000 NULL
P        2.13017498       0.15372552       1.26517383       0.00000000 NULL
P       -0.05449347       2.93182937       9.81921836       0.00000000 NULL
P        2.02783037       6.34974912       9.81921836       0.00000000 NULL
P       -1.97333689       6.44413459       9.81921836       0.00000000 NULL
P        2.14731556       5.73598605       3.87345439       0.00000000 NULL
P       -1.50154507       6.85449334       3.87345439       0.00000000 NULL
P       -0.64577048       3.13523370       3.87345439       0.00000000 NULL
P        0.79257844       7.72396195       7.20134412       0.00000000 NULL
P       -2.54581414       4.68726863       7.20134412       0.00000000 NULL
P        1.75323571       3.31448251       7.20134412       0.00000000 NULL
P        5.79846876       2.77623402       8.11201149       0.00000000 NULL
P        3.77572112       3.63350424       8.11201149       0.00000000 NULL
P        4.04467715       1.45311829       8.11201149       0.00000000 NULL
P        2.79682857       7.41044976       8.03356820       0.00000000 NULL
P       -3.27642968       6.57975625       8.03356820       0.00000000 NULL
P        0.47960112       1.73550707       8.03356820       0.00000000 NULL
P       -2.18597581       4.45473105       4.80690101       0.00000000 NULL
P        1.77470000       3.74238043       4.80690101       0.00000000 NULL
P        0.41127582       7.52860160       4.80690101       0.00000000 NULL
P       -0.53704759       3.30628113       6.10569861       0.00000000 NULL
P        1.94482269       5.74461912       6.10569861       0.00000000 NULL
P       -1.40777509       6.67481284       6.10569861       0.00000000 NULL
P       -3.60809598       6.58448098       0.22060503       0.00000000 NULL
P        0.64134254       1.44591327       0.22060503       0.00000000 NULL
P        2.96675345       7.69531884       0.22060503       0.00000000 NULL
27
Lattice="9.111551961136998 9.73727809042818e-17 -2.4812790428366507e-42 -4.555775980568501 7.890835466246563 5.789357223929915e-41 -2.7143958656600756e-42 -6.334900226187596e-41 10.984242235843627" Properties=species:S:1:pos:R:3:initial_magmoms:R:1:castep_labels:S:1 n_minim_iter=17 pbc="T T T"
P        7.90921805       1.77309749       1.25350336       0.00000000 NULL
P        3.62139547       5.96303501       1.25350336       0.00000000 NULL
P        2.13671443       0.15470297       1.25350336       0.00000000 NULL
P       -0.05423498       2.94234486       9.71683385       0.00000000 NULL
P        2.03474809       6.37269416       9.71683385       0.00000000 NULL
P       -1.98051309       6.46663192       9.71683385       0.00000000 NULL
P        2.15197351       5.75862995       3.83739236       0.00000000 NULL
P       -1.50733059       6.87518422       3.83739236       0.00000000 NULL
P       -0.64464291       3.14785677       3.83739236       0.00000000 NULL
P        0.79368705       7.75083700       7.12777341       0.00000000 NULL
P       -2.55348928       4.70277011       7.12777341       0.00000000 NULL
P        1.75980224       3.32806383       7.12777341       0.00000000 NULL
P        5.82150588       2.78546716       8.03147980       0.00000000 NULL
P        3.78851371       3.64883840       8.03147980       0.00000000 NULL
P        4.05730836       1.45652991       8.03147980       0.00000000 NULL
P        2.80627641       7.43612694       7.95372424       0.00000000 NULL
P       -3.28723705       6.60307866       7.95372424       0.00000000 NULL
P        0.48096065       1.74246534       7.95372424       0.00000000 NULL
P       -2.19381830       4.47304533       4.75706318       0.00000000 NULL
P        1.77891425       3.75441042       4.75706318       0.00000000 NULL
P        0.41490406       7.55421519       4.75706318       0.00000000 NULL
P       -0.54158783       3.31695036       6.04232289       0.00000000 NULL
P        1.95400663       5.76333146       6.04232289       0.00000000 NULL
P       -1.41241879       6.70138912       6.04232289       0.00000000 NULL
P       -3.61889722       6.60510606       0.21728840       0.00000000 NULL
P        0.64503495       1.45422551       0.21728840       0.00000000 NULL
P        2.97386228       7.72233936       0.21728840       0.00000000 NULL
