12
Lattice="6.43979 -9.21634592094284e-16 1.0950407701913249e-16 -0.8662343596397581 6.3812642382430385 -1.2686954330336379e-15 -0.8662343596397577 -0.9917673201427414 6.3037235711106785" Properties=species:S:1:pos:R:3:initial_magmoms:R:1:castep_labels:S:1 n_minim_iter=1 pbc="T T T"
P        5.15492534       1.73893206       5.38322612       0.00000000 NULL
P        4.30827402       5.78703691       2.55445537       0.00000000 NULL
P        1.02972480       4.48756891       6.11372682       0.00000000 NULL
P        3.48406513       2.17379638       2.38611823       0.00000000 NULL
P        1.53227242       3.72401987       2.51822913       0.00000000 NULL
P        1.68538914       1.77511136       4.07014789       0.00000000 NULL
P        2.53249272       0.07397314       6.30179841       0.00000000 NULL
P        5.81660254       3.34530299       1.05249111       0.00000000 NULL
P       -0.26735190       5.83365742       3.46822991       0.00000000 NULL
P        1.74832718       0.18118803       1.18470038       0.00000000 NULL
P        0.89659232       1.88607125       0.36311086       0.00000000 NULL
P       -0.05563107       0.89726370       1.91958721       0.00000000 NULL
12
Lattice="6.445981337391729 -0.0006377243428868321 -0.0007459022675410104 -0.8676991025465839 6.3873135257426235 -0.0007459022675430344 -0.8676991025465842 -0.9934443306783255 6.309583424787085" Properties=species:S:1:pos:R:3:initial_magmoms:R:1:castep_labels:S:1 n_minim_iter=2 pbc="T T T"
P        5.15895606       1.73940010       5.38694444       0.00000000 NULL
P        4.31129951       5.79151530       2.55549562       0.00000000 NULL
P        1.02964640       4.49061151       6.11831246       0.00000000 NULL
P        3.48676804       2.17519284       2.38762246       0.00000000 NULL
P        1.53316623       3.72686890       2.51984241       0.00000000 NULL
P        1.68640933       1.77615185       4.07321303       0.00000000 NULL
P        2.53428509       0.07311933       6.30711426       0.00000000 NULL
P        5.82169646       3.34780328       1.05247386       0.00000000 NULL
P       -0.26843904       5.83865049       3.47069715       0.00000000 NULL
P        1.74998285       0.18085239       1.18570744       0.00000000 NULL
P        0.89740708       1.88785271       0.36293581       0.00000000 NULL
P       -0.05618637       0.89801055       1.92131982       0.00000000 NULL
12
Lattice="6.6144033814214405 -0.01837705437915741 -0.02149437556377842 -0.9079321402434882 6.55181875794805 -0.021494375563779432 -0.9079321402434875 -1.0395078601768029 6.468865005069391" Properties=species:S:1:pos:R:3:initial_magmoms:R:1:castep_labels:S:1 n_minim_iter=3 pbc="T T T"
P        5.26799743       1.75147407       5.48714495       0.00000000 NULL
P        4.39285596       5.91262774       2.58299590       0.00000000 NULL
P        1.02694317       4.57254900       6.24222729       0.00000000 NULL
P        3.55971953       2.21278461       2.42810337       0.00000000 NULL
P        1.55718954       3.80375055       2.56326887       0.00000000 NULL
P        1.71384655       1.80412000       4.15590975       0.00000000 NULL
P        2.58263185       0.04935762       6.45127005       0.00000000 NULL
P        5.95996257       3.41536259       1.05140538       0.00000000 NULL
P       -0.29848807       5.97410566       3.53726946       0.00000000 NULL
P        1.79507287       0.17134163       1.21308371       0.00000000 NULL
P        0.91960445       1.93636949       0.35779540       0.00000000 NULL
P       -0.07167588       0.91830886       1.96844814       0.00000000 NULL
12
Lattice="6.6277189104749805 -0.02793746200561057 -0.032676526295119884 -0.9191967709337232 6.563727276049486 -0.0326765262951211 -0.9191967709337227 -1.0524049387418901 6.478890904671752" Properties=species:S:1:pos:R:3:initial_magmoms:R:1:castep_labels:S:1 n_minim_iter=4 pbc="T T T"
P        5.26396224       1.73772865       5.47621032       0.00000000 NULL
P        4.38481203       5.90746361       2.56771805       0.00000000 NULL
P        1.01386546       4.56265604       6.23475144       0.00000000 NULL
P        3.55319512       2.20745692       2.42187538       0.00000000 NULL
P        1.55279126       3.79656925       2.55703798       0.00000000 NULL
P        1.70944489       1.79908387       4.14784731       0.00000000 NULL
P        2.57762400       0.03584053       6.45409703       0.00000000 NULL
P        5.96548516       3.41105848       1.03849191       0.00000000 NULL
P       -0.31120869       5.97795212       3.53101066       0.00000000 NULL
P        1.79986488       0.16333809       1.21445305       0.00000000 NULL
P        0.92153286       1.94146722       0.35010194       0.00000000 NULL
P       -0.08025127       0.91909088       1.97228822       0.00000000 NULL
12
Lattice="6.625529204901381 -0.04227766437303046 -0.049449273928467215 -0.9331121039385317 6.5596285296798165 -0.04944927392846881 -0.9331121039385317 -1.0683368541288671 6.4722351660142445" Properties=species:S:1:pos:R:3:initial_magmoms:R:1:castep_labels:S:1 n_minim_iter=5 pbc="T T T"
P        5.23998503       1.71138474       5.44137317       0.00000000 NULL
P        4.35799332       5.87962595       2.53627992       0.00000000 NULL
P        0.99098621       4.53248558       6.20236597       0.00000000 NULL
P        3.53012587       2.19212604       2.40465099       0.00000000 NULL
P        1.54139496       3.77174141       2.53921640       0.00000000 NULL
P        1.69735646       1.78594209       4.12055136       0.00000000 NULL
P        2.56113189       0.01526426       6.43690254       0.00000000 NULL
P        5.95404125       3.39286164       1.01549332       0.00000000 NULL
P       -0.32937956       5.96393661       3.50946052       0.00000000 NULL
P        1.80127502       0.15064129       1.21263593       0.00000000 NULL
P        0.92151985       1.94288852       0.33727701       0.00000000 NULL
P       -0.09302236       0.91734411       1.97169902       0.00000000 NULL
12
Lattice="6.570069021248487 -0.15101873374539673 -0.17663621782451863 -1.0334048123253137 6.490045307682683 -0.17663621782452066 -1.0334048123253143 -1.1831637823379741 6.38373025067515" Properties=species:S:1:pos:R:3:initial_magmoms:R:1:castep_labels:S:1 n_minim_iter=6 pbc="T T T"
P        5.02651064       1.50424912       5.14527465       0.00000000 NULL
P        4.12876628       5.63307691       2.28564204       0.00000000 NULL
P        0.81444812       4.27719175       5.91985903       0.00000000 NULL
P        3.32710328       2.06365087       2.26379261       0.00000000 NULL
P        1.45060789       3.55453278       2.39041035       0.00000000 NULL
P        1.59735803       1.68074793       3.88285486       0.00000000 NULL
P        2.41908224      -0.14158113       6.26792400       0.00000000 NULL
P        5.83189570       3.23292836       0.83429139       0.00000000 NULL
P       -0.46569202       5.82216687       3.32330848       0.00000000 NULL
P        1.80075759       0.05245036       1.19262344       0.00000000 NULL
P        0.91712181       1.94176933       0.23716890       0.00000000 NULL
P       -0.19025132       0.89970725       1.95503476       0.00000000 NULL
12
Lattice="6.929817303410116 -0.2651887648348421 -0.3101730445505752 -1.1949280078487627 6.831166810706317 -0.3101730445505774 -1.1949280078487643 -1.3680945980952752 6.699952573259286" Properties=species:S:1:pos:R:3:initial_magmoms:R:1:castep_labels:S:1 n_minim_iter=7 pbc="T T T"
P        5.15330209       1.39349151       5.20759774       0.00000000 NULL
P        4.18977481       5.76931292       2.18591645       0.00000000 NULL
P        0.68764201       4.32154634       6.03894038       0.00000000 NULL
P        3.38563477       2.05684724       2.26765595       0.00000000 NULL
P        1.44756417       3.61318791       2.38428983       0.00000000 NULL
P        1.58274300       1.67569235       3.93984601       0.00000000 NULL
P        2.43024790      -0.31635556       6.48716652       0.00000000 NULL
P        6.07192026       3.27677892       0.69571507       0.00000000 NULL
P       -0.64038000       6.04067953       3.34508886       0.00000000 NULL
P        1.89510058      -0.02429919       1.22752410       0.00000000 NULL
P        0.95041461       2.04149697       0.16677617       0.00000000 NULL
P       -0.27899370       0.92125893       2.04261024       0.00000000 NULL
12
Lattice="6.63642969027249 -0.26348289829706384 -0.3081778098808524 -1.153773247161653 6.540675008419187 -0.308177809880854 -1.1537732471616535 -1.3209757713441117 6.413300721140717" Properties=species:S:1:pos:R:3:initial_magmoms:R:1:castep_labels:S:1 n_minim_iter=8 pbc="T T T"
P        4.92375504       1.31560251       4.97387736       0.00000000 NULL
P        4.00386512       5.51242398       2.07264940       0.00000000 NULL
P        0.64133790       4.12764596       5.76756917       0.00000000 NULL
P        3.22632846       1.95785787       2.16082778       0.00000000 NULL
P        1.37966688       3.44320370       2.26990022       0.00000000 NULL
P        1.50608200       1.59676588       3.75414906       0.00000000 NULL
P        2.31201330      -0.32242033       6.20533875       0.00000000 NULL
P        5.81288532       3.12229684       0.64592271       0.00000000 NULL
P       -0.63048558       5.78061199       3.18474528       0.00000000 NULL
P        1.81654735      -0.02748494       1.16988549       0.00000000 NULL
P        0.90505090       1.95606532       0.15467102       0.00000000 NULL
P       -0.27158408       0.87648499       1.95633533       0.00000000 NULL
12
Lattice="6.652793639680316 -0.2798543115308767 -0.32732632505075304 -1.1721970356757023 6.554688074760417 -0.3273263250507552 -1.1721970356757037 -1.3420694986456405 6.42416747456685" Properties=species:S:1:pos:R:3:initial_magmoms:R:1:castep_labels:S:1 n_minim_iter=9 pbc="T T T"
P        4.91532857       1.28937613       4.95537387       0.00000000 NULL
P        3.99092509       5.50216367       2.04386592       0.00000000 NULL
P        0.61648334       4.11121333       5.75296004       0.00000000 NULL
P        3.21876207       1.94375262       2.14739273       0.00000000 NULL
P        1.36970578       3.43421574       2.25387832       0.00000000 NULL
P        1.49312272       1.58495424       3.74278021       0.00000000 NULL
P        2.29872356      -0.34889741       6.20242581       0.00000000 NULL
P        5.81589920       3.10929433       0.61931464       0.00000000 NULL
P       -0.65493439       5.78033467       3.16776538       0.00000000 NULL
P        1.82015272      -0.03814265       1.16626981       0.00000000 NULL
P        0.90266799       1.95938029       0.14358087       0.00000000 NULL
P       -0.28262990       0.87258079       1.95788640       0.00000000 NULL
12
Lattice="6.657030928611645 -0.2923600152268732 -0.3419533858617583 -1.1851590554051292 6.557204677024101 -0.3419533858617606 -1.1851590554051306 -1.3569099484934588 6.424380179143235" Properties=species:S:1:pos:R:3:initial_magmoms:R:1:castep_labels:S:1 n_minim_iter=10 pbc="T T T"
P        4.90245246       1.26698681       4.93463701       0.00000000 NULL
P        3.97580647       5.48711717       2.01852577       0.00000000 NULL
P        0.59602950       4.09317951       5.73415805       0.00000000 NULL
P        3.20872961       1.93007383       2.13397471       0.00000000 NULL
P        1.36002738       3.42277745       2.23828033       0.00000000 NULL
P        1.48091774       1.57353029       3.72905670       0.00000000 NULL
P        2.28518761      -0.36938135       6.19217457       0.00000000 NULL
P        5.81083997       3.09494747       0.59748637       0.00000000 NULL
P       -0.67341141       5.77272085       3.15020033       0.00000000 NULL
P        1.82055996      -0.04627636       1.16174229       0.00000000 NULL
P        0.89943400       1.95935226       0.13484234       0.00000000 NULL
P       -0.29074447       0.86821562       1.95650058       0.00000000 NULL
12
Lattice="6.679696268876331 -0.3409519021903901 -0.3987879713288999 -1.2363581111288773 6.573127799236335 -0.39878797132890226 -1.2363581111288788 -1.4155286695403793 6.4312766615096955" Properties=species:S:1:pos:R:3:initial_magmoms:R:1:castep_labels:S:1 n_minim_iter=11 pbc="T T T"
P        4.85759986       1.18160376       4.85922121       0.00000000 NULL
P        3.92116690       5.43443607       1.92245921       0.00000000 NULL
P        0.51745567       4.02737269       5.66718656       0.00000000 NULL
P        3.17363809       1.87885378       2.08409888       0.00000000 NULL
P        1.32381384       3.38244823       2.17993104       0.00000000 NULL
P        1.43488344       1.53073563       3.68014896       0.00000000 NULL
P        2.23504558      -0.44882172       6.15834814       0.00000000 NULL
P        5.79670732       3.04242710       0.51375405       0.00000000 NULL
P       -0.74538507       5.74868840       3.08530459       0.00000000 NULL
P        1.82361913      -0.07757883       1.14501367       0.00000000 NULL
P        0.88746812       1.96081516       0.10132029       0.00000000 NULL
P       -0.32217396       0.85187355       1.95273575       0.00000000 NULL
12
Lattice="6.701527878325187 -0.4006270913951474 -0.46858593253324865 -1.2984275949184954 6.58673392138195 -0.4685859325332505 -1.2984275949184962 -1.4865931394677474 6.433869548330852" Properties=species:S:1:pos:R:3:initial_magmoms:R:1:castep_labels:S:1 n_minim_iter=12 pbc="T T T"
P        4.79893341       1.07393945       4.76241968       0.00000000 NULL
P        3.85088305       5.36569077       1.80105840       0.00000000 NULL
P        0.41866122       3.94303323       5.58040866       0.00000000 NULL
P        3.13071692       1.81378851       2.01944335       0.00000000 NULL
P        1.27631832       3.33268606       2.10560772       0.00000000 NULL
P        1.37618294       1.47483611       3.61944024       0.00000000 NULL
P        2.17125458      -0.54701842       6.11078106       0.00000000 NULL
P        5.77384889       2.97494809       0.40935776       0.00000000 NULL
P       -0.83410863       5.71357641       3.00242041       0.00000000 NULL
P        1.82365446      -0.11439463       1.12192276       0.00000000 NULL
P        0.87053020       1.95855155       0.06136309       0.00000000 NULL
P       -0.35865992       0.82982744       1.94428956       0.00000000 NULL
12
Lattice="6.7537364011116345 -0.4796791398875363 -0.5610476722834785 -1.3837839227347735 6.627834450868879 -0.5610476722834804 -1.3837839227347748 -1.584319136541773 6.4601003763321305" Properties=species:S:1:pos:R:3:initial_magmoms:R:1:castep_labels:S:1 n_minim_iter=13 pbc="T T T"
P        4.74077351       0.93742962       4.65290593       0.00000000 NULL
P        3.77252983       5.29636129       1.64918686       0.00000000 NULL
P        0.29121526       3.84666105       5.48831795       0.00000000 NULL
P        3.08879100       1.73385632       1.94264664       0.00000000 NULL
P        1.21909387       3.28260759       2.01471117       0.00000000 NULL
P        1.30261676       1.40710047       3.55584327       0.00000000 NULL
P        2.09580693      -0.67574154       6.07031676       0.00000000 NULL
P        5.76421238       2.89750035       0.27590988       0.00000000 NULL
P       -0.95151322       5.68791426       2.90517348       0.00000000 NULL
P        1.82948458      -0.16170682       1.09433571       0.00000000 NULL
P        0.85002818       1.96165207       0.01033828       0.00000000 NULL
P       -0.40632635       0.80266683       1.93942219       0.00000000 NULL
12
Lattice="6.762227054159342 -0.5844020791844974 -0.6835348860093455 -1.4886972262532274 6.622161360968613 -0.6835348860093465 -1.4886972262532279 -1.7044362673389057 6.435459427397334" Properties=species:S:1:pos:R:3:initial_magmoms:R:1:castep_labels:S:1 n_minim_iter=14 pbc="T T T"
P        4.61863643       0.73913734       4.45812461       0.00000000 NULL
P        3.62883128       5.15359744       1.42303145       0.00000000 NULL
P        0.11115410       3.67720189       5.31214011       0.00000000 NULL
P        3.00366176       1.60020997       1.82055606       0.00000000 NULL
P        1.13161628       3.18482281       1.86371365       0.00000000 NULL
P        1.18163598       1.30239787       3.43577887       0.00000000 NULL
P        1.96897086      -0.84543816       5.95911807       0.00000000 NULL
P        5.69855861       2.76058874       0.09099295       0.00000000 NULL
P       -1.10260654       5.60114795       2.74118598       0.00000000 NULL
P        1.82193556      -0.22326636       1.04148641       0.00000000 NULL
P        0.80879152       1.94843608      -0.05868700       0.00000000 NULL
P       -0.46631099       0.75290926       1.91563898       0.00000000 NULL
12
Lattice="6.860116148268809 -0.6115911483121841 -0.7153360686691117 -1.5288065359119667 6.715503545988581 -0.7153360686691129 -1.5288065359119676 -1.7503581383780162 6.522724887249034" Properties=species:S:1:pos:R:3:initial_magmoms:R:1:castep_labels:S:1 n_minim_iter=15 pbc="T T T"
P        4.66302324       0.71465930       4.48443204       0.00000000 NULL
P        3.65238203       5.20158828       1.40293952       0.00000000 NULL
P        0.08092792       3.69686554       5.35642513       0.00000000 NULL
P        3.03462223       1.59733268       1.82497788       0.00000000 NULL
P        1.13222320       3.21614962       1.86155856       0.00000000 NULL
P        1.17462026       1.30205800       3.46639008       0.00000000 NULL
P        1.97436773      -0.88574800       6.02287989       0.00000000 NULL
P        5.76645522       2.77525183       0.06108270       0.00000000 NULL
P       -1.14327599       5.66414655       2.75102229       0.00000000 NULL
P        1.84602207      -0.23848376       1.04643577       0.00000000 NULL
P        0.81273994       1.97327948      -0.07295028       0.00000000 NULL
P       -0.48463004       0.75440715       1.93796372       0.00000000 NULL
12
Lattice="6.820433677734625 -0.6164953893646894 -0.7210722218557405 -1.528328405195278 6.6755220322726725 -0.7210722218557416 -1.5283284051952783 -1.7498107179088425 6.4823376959227526" Properties=species:S:1:pos:R:3:initial_magmoms:R:1:castep_labels:S:1 n_minim_iter=16 pbc="T T T"
P        4.62610005       0.69390527       4.44295418       0.00000000 NULL
P        3.61994345       5.15992303       1.37599124       0.00000000 NULL
P        0.06532915       3.66201197       5.31107790       0.00000000 NULL
P        3.01043211       1.57610723       1.80432907       0.00000000 NULL
P        1.11853342       3.18987931       1.83738181       0.00000000 NULL
P        1.15684159       1.28582927       3.43668147       0.00000000 NULL
P        1.95178332      -0.89450274       5.97919965       0.00000000 NULL
P        5.72808408       2.74725154       0.04564562       0.00000000 NULL
P       -1.14891326       5.62465824       2.72096303       0.00000000 NULL
P        1.83475975      -0.24162222       1.03502006       0.00000000 NULL
P        0.80356370       1.96066822      -0.07782481       0.00000000 NULL
P       -0.48622505       0.74493024       1.92474812       0.00000000 NULL
