10
Lattice="3.30027 -3.8947266180248003e-16 0.0 -0.477121186924688 6.862894816663561 0.0 0.0 0.0 9.777270000000001" Properties=species:S:1:pos:R:3:initial_magmoms:R:1:castep_labels:S:1 n_minim_iter=1 pbc="T T T"
P        0.10196968       3.32016831       6.46189747       0.00000000 NULL
P        0.10196968       3.32016831       3.31537253       0.00000000 NULL
P        1.42838317       1.04306668       1.03050079       0.00000000 NULL
P        1.42838317       1.04306668       8.74676921       0.00000000 NULL
P        0.86947083       5.59325035       2.51654415       0.00000000 NULL
P        0.86947083       5.59325035       7.26072585       0.00000000 NULL
P        0.02158799       2.51095890       8.77637674       0.00000000 NULL
P        0.02158799       2.51095890       1.00089326       0.00000000 NULL
P        2.63352937       1.54844545       2.61974910       0.00000000 NULL
P        2.63352937       1.54844545       7.15752090       0.00000000 NULL
10
Lattice="3.3058628076325207 -0.000538696185586883 0.0 -0.4790499570785512 6.8705353383954595 0.0 0.0 0.0 9.80570112423198" Properties=species:S:1:pos:R:3:initial_magmoms:R:1:castep_labels:S:1 n_minim_iter=2 pbc="T T T"
P        0.10167013       3.32406511       6.48062198       0.00000000 NULL
P        0.10167013       3.32406511       3.32507914       0.00000000 NULL
P        1.43067223       1.04369781       1.03358634       0.00000000 NULL
P        1.43067223       1.04369781       8.77211478       0.00000000 NULL
P        0.87001564       5.59922309       2.52385764       0.00000000 NULL
P        0.87001564       5.59922309       7.28184349       0.00000000 NULL
P        0.02114961       2.51410191       8.80161043       0.00000000 NULL
P        0.02114961       2.51410191       1.00409069       0.00000000 NULL
P        2.63771200       1.54942162       2.62775820       0.00000000 NULL
P        2.63771200       1.54942162       7.17794293       0.00000000 NULL
10
Lattice="3.4719879657416626 -0.017776280541718585 0.0 -0.5389121989389393 7.088556820695431 0.0 0.0 0.0 10.657725837443117" Properties=species:S:1:pos:R:3:initial_magmoms:R:1:castep_labels:S:1 n_minim_iter=3 pbc="T T T"
P        0.09153275       3.43545549       7.04174102       0.00000000 NULL
P        0.09153275       3.43545549       3.61598482       0.00000000 NULL
P        1.49836299       1.06051212       1.12614044       0.00000000 NULL
P        1.49836299       1.06051212       9.53158540       0.00000000 NULL
P        0.88407710       5.76882052       2.74301075       0.00000000 NULL
P        0.88407710       5.76882052       7.91471509       0.00000000 NULL
P        0.00709510       2.60414289       9.55722977       0.00000000 NULL
P        0.00709510       2.60414289       1.10049607       0.00000000 NULL
P        2.76139527       1.57534562       2.86831481       0.00000000 NULL
P        2.76139527       1.57534562       7.78941103       0.00000000 NULL
10
Lattice="3.5609146144352395 -0.05889209453432863 0.0 -0.6372684833964842 7.012048557868754 0.0 0.0 0.0 11.017035467822858" Properties=species:S:1:pos:R:3:initial_magmoms:R:1:castep_labels:S:1 n_minim_iter=4 pbc="T T T"
P        0.05399961       3.40041304       7.28174253       0.00000000 NULL
P        0.05399961       3.40041304       3.73529294       0.00000000 NULL
P        1.52471401       1.02620919       1.16527252       0.00000000 NULL
P        1.52471401       1.02620919       9.85176295       0.00000000 NULL
P        0.83676911       5.68791302       2.83595515       0.00000000 NULL
P        0.83676911       5.68791302       8.18108032       0.00000000 NULL
P       -0.02473694       2.57883595       9.87087400       0.00000000 NULL
P       -0.02473694       2.57883595       1.14616147       0.00000000 NULL
P        2.81330973       1.51953927       2.97194566       0.00000000 NULL
P        2.81330973       1.51953927       8.04508981       0.00000000 NULL
10
Lattice="3.620391979743034 -0.1186353038635985 0.0 -0.7701028493021529 6.799809550471048 0.0 0.0 0.0 11.408480795842722" Properties=species:S:1:pos:R:3:initial_magmoms:R:1:castep_labels:S:1 n_minim_iter=5 pbc="T T T"
P       -0.00261563       3.30166405       7.54533024       0.00000000 NULL
P       -0.00261563       3.30166405       3.86315056       0.00000000 NULL
P        1.53271306       0.96419125       1.20668062       0.00000000 NULL
P        1.53271306       0.96419125      10.20180017       0.00000000 NULL
P        0.74960237       5.48711460       2.93800748       0.00000000 NULL
P        0.74960237       5.48711460       8.47047331       0.00000000 NULL
P       -0.07095256       2.50127133      10.20921770       0.00000000 NULL
P       -0.07095256       2.50127133       1.19926310       0.00000000 NULL
P        2.83268533       1.41607324       3.08513087       0.00000000 NULL
P        2.83268533       1.41607324       8.32334993       0.00000000 NULL
10
Lattice="3.598789946086351 -0.17775908402718707 0.0 -0.889927438347286 6.542981667976947 0.0 0.0 0.0 11.875918222628169" Properties=species:S:1:pos:R:3:initial_magmoms:R:1:castep_labels:S:1 n_minim_iter=6 pbc="T T T"
P       -0.05880498       3.18957158       7.85669184       0.00000000 NULL
P       -0.05880498       3.18957158       4.01922638       0.00000000 NULL
P        1.50702264       0.89746621       1.25152335       0.00000000 NULL
P        1.50702264       0.89746621      10.62439487       0.00000000 NULL
P        0.64170310       5.24652169       3.06132194       0.00000000 NULL
P        0.64170310       5.24652169       8.81459628       0.00000000 NULL
P       -0.11781283       2.40531566      10.61145093       0.00000000 NULL
P       -0.11781283       2.40531566       1.26446730       0.00000000 NULL
P        2.78514504       1.29891241       3.21648316       0.00000000 NULL
P        2.78514504       1.29891241       8.65943507       0.00000000 NULL
10
Lattice="3.550350574124467 -0.21260886955225256 0.0 -0.955394494617672 6.505992297431133 0.0 0.0 0.0 12.311697387017544" Properties=species:S:1:pos:R:3:initial_magmoms:R:1:castep_labels:S:1 n_minim_iter=7 pbc="T T T"
P       -0.08970666       3.19087990       8.13528454       0.00000000 NULL
P       -0.08970666       3.19087990       4.17641284       0.00000000 NULL
P        1.47923810       0.87444683       1.28706785       0.00000000 NULL
P        1.47923810       0.87444683      11.02462953       0.00000000 NULL
P        0.56802425       5.19194058       3.17671396       0.00000000 NULL
P        0.56802425       5.19194058       9.13498343       0.00000000 NULL
P       -0.14847142       2.39121621      10.98901200       0.00000000 NULL
P       -0.14847142       2.39121621       1.32268538       0.00000000 NULL
P        2.72597204       1.25009372       3.32920845       0.00000000 NULL
P        2.72597204       1.25009372       8.98248894       0.00000000 NULL
10
Lattice="3.498454043345949 -0.2521303896761255 0.0 -1.0300765967615808 6.417026915242294 0.0 0.0 0.0 12.403711194521279" Properties=species:S:1:pos:R:3:initial_magmoms:R:1:castep_labels:S:1 n_minim_iter=8 pbc="T T T"
P       -0.12900038       3.15711481       8.18757786       0.00000000 NULL
P       -0.12900038       3.15711481       4.21613334       0.00000000 NULL
P        1.44742131       0.84190481       1.28783122       0.00000000 NULL
P        1.44742131       0.84190481      11.11587998       0.00000000 NULL
P        0.48627829       5.09587748       3.20274458       0.00000000 NULL
P        0.48627829       5.09587748       9.20096662       0.00000000 NULL
P       -0.18204830       2.35625499      11.06372423       0.00000000 NULL
P       -0.18204830       2.35625499       1.33998696       0.00000000 NULL
P        2.66507316       1.19353082       3.34590891       0.00000000 NULL
P        2.66507316       1.19353082       9.05780229       0.00000000 NULL
10
Lattice="3.495982158370054 -0.259978516025091 0.0 -1.0460393746395098 6.427619838356225 0.0 0.0 0.0 12.565189204552418" Properties=species:S:1:pos:R:3:initial_magmoms:R:1:castep_labels:S:1 n_minim_iter=9 pbc="T T T"
P       -0.13534426       3.16998635       8.28654696       0.00000000 NULL
P       -0.13534426       3.16998635       4.27864224       0.00000000 NULL
P        1.44459438       0.83848109       1.29905800       0.00000000 NULL
P        1.44459438       0.83848109      11.26613120       0.00000000 NULL
P        0.47159891       5.09628838       3.24505793       0.00000000 NULL
P        0.47159891       5.09628838       9.32013127       0.00000000 NULL
P       -0.18885118       2.36074797      11.20432573       0.00000000 NULL
P       -0.18885118       2.36074797       1.36086347       0.00000000 NULL
P        2.65860995       1.18647479       3.38459322       0.00000000 NULL
P        2.65860995       1.18647479       9.18059599       0.00000000 NULL
10
Lattice="3.482230807152791 -0.2718009257065177 0.0 -1.0686359782836186 6.3966234768694115 0.0 0.0 0.0 12.657771161507393" Properties=species:S:1:pos:R:3:initial_magmoms:R:1:castep_labels:S:1 n_minim_iter=10 pbc="T T T"
P       -0.14664047       3.16083940       8.34063301       0.00000000 NULL
P       -0.14664047       3.16083940       4.31713815       0.00000000 NULL
P        1.43548912       0.82721468       1.30299848       0.00000000 NULL
P        1.43548912       0.82721468      11.35477268       0.00000000 NULL
P        0.44733655       5.06155788       3.26969179       0.00000000 NULL
P        0.44733655       5.06155788       9.38807937       0.00000000 NULL
P       -0.19862617       2.34919703      11.28318607       0.00000000 NULL
P       -0.19862617       2.34919703       1.37458509       0.00000000 NULL
P        2.64177770       1.16826795       3.40405270       0.00000000 NULL
P        2.64177770       1.16826795       9.25371846       0.00000000 NULL
10
Lattice="3.4621500242531047 -0.2902904199952238 0.0 -1.1041817025865437 6.348624514381337 0.0 0.0 0.0 12.884614740411838" Properties=species:S:1:pos:R:3:initial_magmoms:R:1:castep_labels:S:1 n_minim_iter=11 pbc="T T T"
P       -0.16361311       3.15134054       8.47229258       0.00000000 NULL
P       -0.16361311       3.15134054       4.41232216       0.00000000 NULL
P        1.42150694       0.80830177       1.31251151       0.00000000 NULL
P        1.42150694       0.80830177      11.57210323       0.00000000 NULL
P        0.40931706       5.00403456       3.32924087       0.00000000 NULL
P        0.40931706       5.00403456       9.55537387       0.00000000 NULL
P       -0.21367269       2.33205251      11.47681395       0.00000000 NULL
P       -0.21367269       2.33205251       1.40780079       0.00000000 NULL
P        2.61651840       1.13954171       3.45154192       0.00000000 NULL
P        2.61651840       1.13954171       9.43307282       0.00000000 NULL
10
Lattice="3.4328112797761325 -0.3145078710451647 0.0 -1.1503002573398546 6.223021963816435 0.0 0.0 0.0 13.270464724662679" Properties=species:S:1:pos:R:3:initial_magmoms:R:1:castep_labels:S:1 n_minim_iter=12 pbc="T T T"
P       -0.18505757       3.11796694       8.68088885       0.00000000 NULL
P       -0.18505757       3.11796694       4.58957588       0.00000000 NULL
P        1.39926959       0.76980006       1.31521276       0.00000000 NULL
P        1.39926959       0.76980006      11.95525197       0.00000000 NULL
P        0.35744653       4.86749545       3.42811835       0.00000000 NULL
P        0.35744653       4.86749545       9.84234638       0.00000000 NULL
P       -0.23141180       2.28797808      11.79789570       0.00000000 NULL
P       -0.23141180       2.28797808       1.47256903       0.00000000 NULL
P        2.58202354       1.09127263       3.51970041       0.00000000 NULL
P        2.58202354       1.09127263       9.75076431       0.00000000 NULL
10
Lattice="3.466858662377294 -0.30742028757047685 0.0 -1.140483905255702 6.113652319493516 0.0 0.0 0.0 13.54950029228701" Properties=species:S:1:pos:R:3:initial_magmoms:R:1:castep_labels:S:1 n_minim_iter=13 pbc="T T T"
P       -0.17294526       3.08813965       8.80825829       0.00000000 NULL
P       -0.17294526       3.08813965       4.74124200       0.00000000 NULL
P        1.40724956       0.74362290       1.28712300       0.00000000 NULL
P        1.40724956       0.74362290      12.26237729       0.00000000 NULL
P        0.37455506       4.75629477       3.48890441       0.00000000 NULL
P        0.37455506       4.75629477      10.06059588       0.00000000 NULL
P       -0.21998033       2.25400734      12.01176554       0.00000000 NULL
P       -0.21998033       2.25400734       1.53773476       0.00000000 NULL
P        2.61564098       1.08203457       3.55625027       0.00000000 NULL
P        2.61564098       1.08203457       9.99325002       0.00000000 NULL
10
Lattice="3.4303212371646525 -0.3240001537706953 0.0 -1.169679425053122 5.979126450839184 0.0 0.0 0.0 13.465658642133896" Properties=species:S:1:pos:R:3:initial_magmoms:R:1:castep_labels:S:1 n_minim_iter=14 pbc="T T T"
P       -0.19192461       3.02083580       8.74612686       0.00000000 NULL
P       -0.19192461       3.02083580       4.71953178       0.00000000 NULL
P        1.38550610       0.71427843       1.26271749       0.00000000 NULL
P        1.38550610       0.71427843      12.20294115       0.00000000 NULL
P        0.33724797       4.63728060       3.46412436       0.00000000 NULL
P        0.33724797       4.63728060      10.00153428       0.00000000 NULL
P       -0.23375803       2.20388626      11.92904692       0.00000000 NULL
P       -0.23375803       2.20388626       1.53661172       0.00000000 NULL
P        2.58107223       1.04278968       3.53046926       0.00000000 NULL
P        2.58107223       1.04278968       9.93518938       0.00000000 NULL
10
Lattice="3.445774721144912 -0.3203015763408623 0.0 -1.1642223675234518 5.991085113929413 0.0 0.0 0.0 13.613277669370133" Properties=species:S:1:pos:R:3:initial_magmoms:R:1:castep_labels:S:1 n_minim_iter=15 pbc="T T T"
P       -0.18704290       3.02897873       8.83434550       0.00000000 NULL
P       -0.18704290       3.02897873       4.77893217       0.00000000 NULL
P        1.39202488       0.71580770       1.26758058       0.00000000 NULL
P        1.39202488       0.71580770      12.34569709       0.00000000 NULL
P        0.34731085       4.64624442       3.49814759       0.00000000 NULL
P        0.34731085       4.64624442      10.11513008       0.00000000 NULL
P       -0.23053546       2.21010712      12.05675157       0.00000000 NULL
P       -0.23053546       2.21010712       1.55652610       0.00000000 NULL
P        2.59576346       1.04911267       3.56875679       0.00000000 NULL
P        2.59576346       1.04911267      10.04452088       0.00000000 NULL
10
Lattice="3.4461301004188725 -0.32122969349682823 0.0 -1.166203759773157 5.963853482726961 0.0 0.0 0.0 13.647525863621942" Properties=species:S:1:pos:R:3:initial_magmoms:R:1:castep_labels:S:1 n_minim_iter=16 pbc="T T T"
P       -0.18780384       3.01642471       8.85107154       0.00000000 NULL
P       -0.18780384       3.01642471       4.79645433       0.00000000 NULL
P        1.39090176       0.70993614       1.26189384       0.00000000 NULL
P        1.39090176       0.70993614      12.38563203       0.00000000 NULL
P        0.34583597       4.62212294       3.50384420       0.00000000 NULL
P        0.34583597       4.62212294      10.14368167       0.00000000 NULL
P       -0.23134221       2.20098026      12.08327450       0.00000000 NULL
P       -0.23134221       2.20098026       1.56425136       0.00000000 NULL
P        2.59653186       1.04347662       3.57674530       0.00000000 NULL
P        2.59653186       1.04347662      10.07078057       0.00000000 NULL
10
Lattice="3.446957150952789 -0.3236407579081835 0.0 -1.1713371230385012 5.894899307701706 0.0 0.0 0.0 13.726335001057718" Properties=species:S:1:pos:R:3:initial_magmoms:R:1:castep_labels:S:1 n_minim_iter=17 pbc="T T T"
P       -0.18979307       2.98428497       8.88886926       0.00000000 NULL
P       -0.18979307       2.98428497       4.83746574       0.00000000 NULL
P        1.38806105       0.69527959       1.24727898       0.00000000 NULL
P        1.38806105       0.69527959      12.47905603       0.00000000 NULL
P        0.34208936       4.56158543       3.51607216       0.00000000 NULL
P        0.34208936       4.56158543      10.21026284       0.00000000 NULL
P       -0.23353818       2.17781004      12.14380569       0.00000000 NULL
P       -0.23353818       2.17781004       1.58252931       0.00000000 NULL
P        2.59833162       1.02875272       3.59539248       0.00000000 NULL
P        2.59833162       1.02875272      10.13094252       0.00000000 NULL
10
Lattice="3.4478344806668146 -0.32692687597136644 0.0 -1.1782974248372144 5.815998394014041 0.0 0.0 0.0 13.802225552895065" Properties=species:S:1:pos:R:3:initial_magmoms:R:1:castep_labels:S:1 n_minim_iter=18 pbc="T T T"
P       -0.19261961       2.94664669       8.92461194       0.00000000 NULL
P       -0.19261961       2.94664669       4.87761361       0.00000000 NULL
P        1.38482919       0.67887429       1.23150677       0.00000000 NULL
P        1.38482919       0.67887429      12.57071879       0.00000000 NULL
P        0.33716482       4.49350500       3.52625679       0.00000000 NULL
P        0.33716482       4.49350500      10.27596876       0.00000000 NULL
P       -0.23666860       2.15111692      12.20177817       0.00000000 NULL
P       -0.23666860       2.15111692       1.60044739       0.00000000 NULL
P        2.59983298       1.01042930       3.61422537       0.00000000 NULL
P        2.59983298       1.01042930      10.18800019       0.00000000 NULL
10
Lattice="3.449530345884871 -0.33114735420751684 0.0 -1.1873190598659915 5.727258071817383 0.0 0.0 0.0 13.891732128503573" Properties=species:S:1:pos:R:3:initial_magmoms:R:1:castep_labels:S:1 n_minim_iter=19 pbc="T T T"
P       -0.19627210       2.90365127       8.96850568       0.00000000 NULL
P       -0.19627210       2.90365127       4.92322644       0.00000000 NULL
P        1.38148760       0.66068425       1.21633934       0.00000000 NULL
P        1.38148760       0.66068425      12.67539279       0.00000000 NULL
P        0.33119660       4.41800991       3.53838358       0.00000000 NULL
P        0.33119660       4.41800991      10.35334855       0.00000000 NULL
P       -0.24070548       2.12098329      12.27188140       0.00000000 NULL
P       -0.24070548       2.12098329       1.61985073       0.00000000 NULL
P        2.60150577       0.98830120       3.63737232       0.00000000 NULL
P        2.60150577       0.98830120      10.25435981       0.00000000 NULL
10
Lattice="3.4505144420908183 -0.3370755868704523 0.0 -1.1997890609156856 5.623560845563963 0.0 0.0 0.0 13.983083155396233" Properties=species:S:1:pos:R:3:initial_magmoms:R:1:castep_labels:S:1 n_minim_iter=20 pbc="T T T"
P       -0.20161917       2.85265287       9.01291967       0.00000000 NULL
P       -0.20161917       2.85265287       4.97016349       0.00000000 NULL
P        1.37716728       0.63966395       1.20105020       0.00000000 NULL
P        1.37716728       0.63966395      12.78203295       0.00000000 NULL
P        0.32255987       4.33078460       3.54948282       0.00000000 NULL
P        0.32255987       4.33078460      10.43360033       0.00000000 NULL
P       -0.24622622       2.08538950      12.34354143       0.00000000 NULL
P       -0.24622622       2.08538950       1.63954172       0.00000000 NULL
P        2.60166139       0.96053075       3.66124210       0.00000000 NULL
P        2.60166139       0.96053075      10.32184105       0.00000000 NULL
10
Lattice="3.453530629551562 -0.34395953828333115 0.0 -1.2145402544273873 5.511681364675201 0.0 0.0 0.0 14.101606881334272" Properties=species:S:1:pos:R:3:initial_magmoms:R:1:castep_labels:S:1 n_minim_iter=21 pbc="T T T"
P       -0.20769737       2.79728610       9.07351669       0.00000000 NULL
P       -0.20769737       2.79728610       5.02809020       0.00000000 NULL
P        1.37318862       0.61708052       1.18813364       0.00000000 NULL
P        1.37318862       0.61708052      12.91347324       0.00000000 NULL
P        0.31325686       4.23757965       3.56587329       0.00000000 NULL
P        0.31325686       4.23757965      10.53573359       0.00000000 NULL
P       -0.25248779       2.04692131      12.43922006       0.00000000 NULL
P       -0.25248779       2.04692131       1.66238682       0.00000000 NULL
P        2.60266725       0.92908941       3.69207513       0.00000000 NULL
P        2.60266725       0.92908941      10.40953175       0.00000000 NULL
10
Lattice="3.4549093798194312 -0.3518523552355128 0.0 -1.2311526538717612 5.388951751030902 0.0 0.0 0.0 14.20335570477159" Properties=species:S:1:pos:R:3:initial_magmoms:R:1:castep_labels:S:1 n_minim_iter=22 pbc="T T T"
P       -0.21474111       2.73619062       9.12283384       0.00000000 NULL
P       -0.21474111       2.73619062       5.08052187       0.00000000 NULL
P        1.36803587       0.59263067       1.17413565       0.00000000 NULL
P        1.36803587       0.59263067      13.02922006       0.00000000 NULL
P        0.30228500       4.13615816       3.57719919       0.00000000 NULL
P        0.30228500       4.13615816      10.62615652       0.00000000 NULL
P       -0.25956470       2.00438117      12.51998541       0.00000000 NULL
P       -0.25956470       2.00438117       1.68337029       0.00000000 NULL
P        2.60150436       0.89352968       3.71770662       0.00000000 NULL
P        2.60150436       0.89352968      10.48564908       0.00000000 NULL
10
Lattice="3.458601995679919 -0.35487022305625276 0.0 -1.237962137546292 5.321748372774167 0.0 0.0 0.0 14.275594837771669" Properties=species:S:1:pos:R:3:initial_magmoms:R:1:castep_labels:S:1 n_minim_iter=23 pbc="T T T"
P       -0.21691947       2.70297887       9.15943624       0.00000000 NULL
P       -0.21691947       2.70297887       5.11615859       0.00000000 NULL
P        1.36661404       0.57967001       1.16760493       0.00000000 NULL
P        1.36661404       0.57967001      13.10798991       0.00000000 NULL
P        0.29944464       4.08147832       3.58698535       0.00000000 NULL
P        0.29944464       4.08147832      10.68860948       0.00000000 NULL
P       -0.26236654       1.98138761      12.57908742       0.00000000 NULL
P       -0.26236654       1.98138761       1.69650742       0.00000000 NULL
P        2.60358608       0.87461458       3.73553913       0.00000000 NULL
P        2.60358608       0.87461458      10.54005570       0.00000000 NULL
10
Lattice="3.470370871645573 -0.3730998069675576 0.0 -1.2775718958401072 4.928016311564141 0.0 0.0 0.0 14.606879660327598" Properties=species:S:1:pos:R:3:initial_magmoms:R:1:castep_labels:S:1 n_minim_iter=24 pbc="T T T"
P       -0.23028557       2.50784768       9.31375174       0.00000000 NULL
P       -0.23028557       2.50784768       5.29312792       0.00000000 NULL
P        1.35367189       0.50445126       1.11999272       0.00000000 NULL
P        1.35367189       0.50445126      13.48688694       0.00000000 NULL
P        0.28029221       3.76149739       3.62012391       0.00000000 NULL
P        0.28029221       3.76149739      10.98675575       0.00000000 NULL
P       -0.27985958       1.84618477      12.84241810       0.00000000 NULL
P       -0.27985958       1.84618477       1.76446156       0.00000000 NULL
P        2.60714685       0.76273667       3.81282064       0.00000000 NULL
P        2.60714685       0.76273667      10.79405902       0.00000000 NULL
10
Lattice="3.5242938423488335 -0.3031765879144435 0.0 -1.139962577263262 5.13023629160507 0.0 0.0 0.0 14.866852577283176" Properties=species:S:1:pos:R:3:initial_magmoms:R:1:castep_labels:S:1 n_minim_iter=25 pbc="T T T"
P       -0.14940137       2.62617142       9.46372683       0.00000000 NULL
P       -0.14940137       2.62617142       5.40312575       0.00000000 NULL
P        1.39069550       0.55756886       1.12617535       0.00000000 NULL
P        1.39069550       0.55756886      13.74067723       0.00000000 NULL
P        0.41141022       3.94607302       3.67585254       0.00000000 NULL
P        0.41141022       3.94607302      11.19100004       0.00000000 NULL
P       -0.22618247       1.93249425      13.06600872       0.00000000 NULL
P       -0.22618247       1.93249425       1.80084385       0.00000000 NULL
P        2.68399276       0.86114277       3.87487398       0.00000000 NULL
P        2.68399276       0.86114277      10.99197860       0.00000000 NULL
10
Lattice="3.472227220539665 -0.3309066513535377 0.0 -1.1900998145938928 5.0017816462115565 0.0 0.0 0.0 14.406735317290815" Properties=species:S:1:pos:R:3:initial_magmoms:R:1:castep_labels:S:1 n_minim_iter=26 pbc="T T T"
P       -0.18144824       2.55699386       9.17952237       0.00000000 NULL
P       -0.18144824       2.55699386       5.22721294       0.00000000 NULL
P        1.36185601       0.52753061       1.09062330       0.00000000 NULL
P        1.36185601       0.52753061      13.31611201       0.00000000 NULL
P        0.35299419       3.83317310       3.56344061       0.00000000 NULL
P        0.35299419       3.83317310      10.84329471       0.00000000 NULL
P       -0.25103305       1.88275810      12.65813333       0.00000000 NULL
P       -0.25103305       1.88275810       1.74860199       0.00000000 NULL
P        2.63063002       0.80999468       3.75574120       0.00000000 NULL
P        2.63063002       0.80999468      10.65099412       0.00000000 NULL
10
Lattice="3.4765047361391055 -0.3351009577056925 0.0 -1.1994402554195212 4.995775882270498 0.0 0.0 0.0 14.49043071333173" Properties=species:S:1:pos:R:3:initial_magmoms:R:1:castep_labels:S:1 n_minim_iter=27 pbc="T T T"
P       -0.18523548       2.55432043       9.23157926       0.00000000 NULL
P       -0.18523548       2.55432043       5.25885145       0.00000000 NULL
P        1.36229307       0.52385726       1.09809024       0.00000000 NULL
P        1.36229307       0.52385726      13.39234047       0.00000000 NULL
P        0.34787974       3.82652020       3.58211828       0.00000000 NULL
P        0.34787974       3.82652020      10.90831243       0.00000000 NULL
P       -0.25582688       1.88150437      12.73218433       0.00000000 NULL
P       -0.25582688       1.88150437       1.75824638       0.00000000 NULL
P        2.63262746       0.80432002       3.77937112       0.00000000 NULL
P        2.63262746       0.80432002      10.71105959       0.00000000 NULL
