9
Lattice="4.971971609261535 -2.7081795448134245e-16 0.0 -2.4859858046307677 4.305853720515487 0.0 0.0 0.0 7.655091941334678" Properties=species:S:1:pos:R:3:initial_magmoms:R:1:castep_labels:S:1:forces:R:3 n_minim_iter=1 energy=-47.015745188372 stress="0.002647715264285154 0.0 -0.0 0.0 0.002647654245773348 -0.0 -0.0 -0.0 -0.0010792344183123968" free_energy=-47.015745188372 pbc="T T T"
P        1.99458607       2.98571885       3.39028060       0.00000000 NULL       0.27324600       0.08235900      -0.06830800
P        4.07440114       1.08563209       0.83858328       0.00000000 NULL      -0.06529600      -0.27781700      -0.06830800
P        1.38897020       0.23450279       5.94197791       0.00000000 NULL      -0.20794600       0.19545700      -0.06830700
P       -1.42025357       2.46548491       5.09389315       0.00000000 NULL      -0.22572500       0.20363600       0.18860900
P        0.35931354       4.30308694       2.54219583       0.00000000 NULL       0.28921500       0.09366600       0.18860800
P        1.06094003       1.84313560       7.64559046       0.00000000 NULL      -0.06349200      -0.29730100       0.18860900
P        0.45466629       1.66617795       4.27907147       0.00000000 NULL      -0.03892300      -0.79814000      -0.12030100
P       -1.27036652       3.07901219       1.72737416       0.00000000 NULL      -0.67174900       0.43277800      -0.12030000
P        0.81570023       3.86651730       6.83076879       0.00000000 NULL       0.71066900       0.36536200      -0.12030100
9
Lattice="4.866319960052295 -1.839571568512283e-16 0.0 -2.4331599800261476 4.2143567083485625 0.0 0.0 0.0 7.722405988462895" Properties=species:S:1:pos:R:3:initial_magmoms:R:1:castep_labels:S:1:forces:R:3 n_minim_iter=2 energy=-47.117493677432 stress="-0.009739903038433797 -0.0 0.0 -0.0 -0.009739903038433797 0.0 0.0 0.0 -0.0039323307602838154" free_energy=-47.117493677432 pbc="T T T"
P        1.96544023       2.92626406       3.41668167       0.00000000 NULL       0.36148700      -0.04160300       0.03968100
P        3.98465888       1.04910351       0.84254634       0.00000000 NULL      -0.21677400      -0.29225600       0.03968200
P        1.34938083       0.23898914       5.99081700       0.00000000 NULL      -0.14471300       0.33385800       0.03968200
P       -1.40100974       2.42296033       5.14810371       0.00000000 NULL      -0.20542000      -0.08307700       0.09981500
P        0.36569009       4.21618657       2.57396838       0.00000000 NULL       0.03076200       0.21943700       0.09981500
P        1.03531965       1.78956652       7.72223904       0.00000000 NULL       0.17465900      -0.13636000       0.09981500
P        0.44311920       1.59210478       4.31069177       0.00000000 NULL      -0.10782700      -0.68758100      -0.13949700
P       -1.27591640       3.03455184       1.73655644       0.00000000 NULL      -0.54154900       0.43717100      -0.13949700
P        0.83279720       3.80205680       6.88482710       0.00000000 NULL       0.64937500       0.25041100      -0.13949700
9
Lattice="4.8831448942189315 2.311147052895096e-16 0.0 -2.441572447109466 4.22892752875387 0.0 0.0 0.0 7.838286978864681" Properties=species:S:1:pos:R:3:initial_magmoms:R:1:castep_labels:S:1:forces:R:3 n_minim_iter=3 energy=-47.177824294077 stress="0.004993133145568364 0.0 0.0 0.0 0.004993133145568364 6.17801455756346e-08 0.0 6.17801455756346e-08 0.012356955817310555" free_energy=-47.177824294077 pbc="T T T"
P        1.98705288       2.93896244       3.46580344       0.00000000 NULL       0.13983100      -0.20111500       0.12642800
P        3.99326214       1.03860803       0.85304112       0.00000000 NULL      -0.24408600      -0.02053900       0.12642700
P        1.34440232       0.25135705       6.07856577       0.00000000 NULL       0.10425400       0.22165100       0.12642700
P       -1.41692713       2.43796700       5.23410407       0.00000000 NULL       0.07252700      -0.12545400      -0.08460700
P        0.37823247       4.23703892       2.62134174       0.00000000 NULL      -0.14491500      -0.00008300      -0.08460900
P        1.03869466       1.78284914       7.84686639       0.00000000 NULL       0.07238500       0.12553700      -0.08460900
P        0.44183528       1.55893988       4.36877667       0.00000000 NULL      -0.19395400      -0.28634800      -0.04182000
P       -1.31240854       3.06681702       1.75601435       0.00000000 NULL      -0.15100600       0.31114400      -0.04181800
P        0.87057327       3.83209816       6.98153900       0.00000000 NULL       0.34496300      -0.02479300      -0.04181800
9
Lattice="4.907999398741303 -8.166228662789652e-16 7.8400689435423925e-56 -2.453999699370651 4.25045216106872 -4.8276052248354474e-40 -2.5065523339310977e-55 1.1666001335381186e-39 7.586006856585798" Properties=species:S:1:pos:R:3:initial_magmoms:R:1:castep_labels:S:1:forces:R:3 n_minim_iter=4 energy=-47.224429181399 stress="0.0053035855270754445 -0.0 0.0 -0.0 0.005303648716904316 -0.0 0.0 -0.0 -0.0036961626602235636" free_energy=-47.224429181399 pbc="T T T"
P        2.01395394       2.94981129       3.35695881       0.00000000 NULL      -0.10256400      -0.24526200       0.18976600
P        4.00163424       1.03141124       0.82828986       0.00000000 NULL      -0.16112400       0.21145300       0.18976600
P        1.34641091       0.26922963       5.88562776       0.00000000 NULL       0.26368600       0.03381000       0.18976700
P       -1.43141784       2.44969894       5.06958465       0.00000000 NULL       0.17933000      -0.18582200       0.13937700
P        0.38321074       4.26524691       2.54091569       0.00000000 NULL      -0.25059100      -0.06239600       0.13937800
P        1.04820710       1.78595848       7.59825360       0.00000000 NULL       0.07126200       0.24821800       0.13937600
P        0.43623913       1.52874730       4.22151703       0.00000000 NULL      -0.21335600      -0.05104500      -0.32914300
P       -1.34818526       3.10828434       1.69284808       0.00000000 NULL       0.06247300       0.21029400      -0.32914400
P        0.91194614       3.86387268       6.75018599       0.00000000 NULL       0.15088300      -0.15925100      -0.32914300
9
Lattice="4.856932168958314 -1.3391757430149938e-15 -1.1246192807066216e-42 -2.428466084479156 4.206226642775754 -9.251876148339757e-41 -1.739383242065808e-42 1.3767577287381742e-39 7.560324904292153" Properties=species:S:1:pos:R:3:initial_magmoms:R:1:castep_labels:S:1:forces:R:3 n_minim_iter=5 energy=-47.327045057872 stress="0.002027936211130515 0.0 0.0 0.0 0.0020280009559172827 0.0 0.0 0.0 -0.002398276391440411" free_energy=-47.327045057872 pbc="T T T"
P        2.01198706       2.88445126       3.37224187       0.00000000 NULL      -0.31640000      -0.04547000       0.01190800
P        3.92048062       1.02156911       0.85213357       0.00000000 NULL       0.11882000       0.29674400       0.01190700
P        1.35293057       0.30020628       5.89235017       0.00000000 NULL       0.19757800      -0.25127500       0.01190800
P       -1.40884224       2.39495188       5.06631691       0.00000000 NULL       0.17617100      -0.04185800       0.22192600
P        0.35004420       4.22884388       2.54620861       0.00000000 NULL      -0.12433900      -0.13164100       0.22192600
P        1.05879804       1.78865753       7.58642521       0.00000000 NULL      -0.05183300       0.17349900       0.22192500
P        0.39674658       1.45559220       4.16668249       0.00000000 NULL      -0.04706200      -0.06522300      -0.23383400
P       -1.36625955       3.13483792       1.64657419       0.00000000 NULL      -0.03295100       0.07336900      -0.23383300
P        0.96951297       3.82202316       6.68679079       0.00000000 NULL       0.08001500      -0.00814500      -0.23383200
9
Lattice="4.8723463045511215 -1.7892186283400757e-16 -2.437956040587702e-41 -2.436173152275561 4.219575675776504 -9.879046082492947e-40 -3.803628765045289e-41 1.2359265458649976e-39 7.382990210340286" Properties=species:S:1:pos:R:3:initial_magmoms:R:1:castep_labels:S:1:forces:R:3 n_minim_iter=6 energy=-47.40037780639 stress="0.00404042145322427 -0.0 0.0 -0.0 0.00404042145322427 0.0 0.0 0.0 -0.001936179394557356" free_energy=-47.40037780639 pbc="T T T"
P        1.98634791       2.87584084       3.30150997       0.00000000 NULL      -0.19841700      -0.09424100       0.06067400
P        3.93355042       1.06142750       0.84051323       0.00000000 NULL       0.01759200       0.21895400       0.06067400
P        1.38862112       0.28230734       5.76250671       0.00000000 NULL       0.18082300      -0.12471400       0.06067300
P       -1.38917485       2.38507592       4.98545626       0.00000000 NULL       0.04065100      -0.13107600       0.00876500
P        0.32395060       4.23009842       2.52445952       0.00000000 NULL      -0.13384400       0.03033100       0.00876500
P        1.06522424       1.82397701       7.44645300       0.00000000 NULL       0.09319100       0.10074500       0.00876600
P        0.37700845       1.40115230       4.02260704       0.00000000 NULL       0.02185100       0.00215400      -0.06943900
P       -1.41124389       3.19250063       1.56161030       0.00000000 NULL      -0.00905700      -0.01999900      -0.06943800
P        1.03423544       3.84549842       6.48360377       0.00000000 NULL      -0.01279100       0.01784700      -0.06943900
9
Lattice="4.853652827907106 3.734425439489564e-16 -2.4032557390571325e-41 -2.426826413953554 4.203386650117736 -8.757112331374285e-40 -3.742708061394735e-41 1.599082736382316e-39 7.370492746822338" Properties=species:S:1:pos:R:3:initial_magmoms:R:1:castep_labels:S:1:forces:R:3 n_minim_iter=7 energy=-47.428395479904 stress="0.0018321328603222533 0.0 0.0 0.0 0.0018321993624224463 0.0 0.0 0.0 -0.0013844407218217302" free_energy=-47.428395479904 pbc="T T T"
P        1.94809276       2.84989154       3.30276240       0.00000000 NULL      -0.13370500       0.04689600       0.05866500
P        3.92085850       1.09134306       0.84593148       0.00000000 NULL       0.10746600       0.09234400       0.05866300
P        1.41152798       0.26215205       5.75959331       0.00000000 NULL       0.02623800      -0.13924200       0.05866600
P       -1.38693473       2.34465132       4.97769547       0.00000000 NULL       0.12877300      -0.06458400      -0.02299200
P        0.29716856       4.23218170       2.52086456       0.00000000 NULL      -0.12032100      -0.07922800      -0.02299300
P        1.08976617       1.82994028       7.43452639       0.00000000 NULL      -0.00845300       0.14381200      -0.02299400
P        0.38347270       1.35830585       4.00827860       0.00000000 NULL      -0.11114500       0.02422300      -0.03567300
P       -1.44223539       3.19213663       1.55144768       0.00000000 NULL       0.07655100       0.08414300      -0.03567200
P        1.05876269       3.85633083       6.46510951       0.00000000 NULL       0.03459600      -0.10836500      -0.03567000
9
Lattice="4.836147872960404 -2.421293765054192e-16 -2.315586859511518e-41 -2.4180739364802024 4.188226914441789 -6.27599484900967e-40 -3.580313303866593e-41 1.7786100332491035e-39 7.402336630959916" Properties=species:S:1:pos:R:3:initial_magmoms:R:1:castep_labels:S:1:forces:R:3 n_minim_iter=8 energy=-47.443984041254 stress="-0.00042078657865767227 -0.0 -0.0 -0.0 -0.00042078657865767227 0.0 -0.0 0.0 -0.0007360597055105518" free_energy=-47.443984041254 pbc="T T T"
P        1.91131489       2.84948936       3.32784468       0.00000000 NULL      -0.07334600      -0.00060700       0.06046100
P        3.93014666       1.10823498       0.86039914       0.00000000 NULL       0.03614700       0.06382300       0.06046000
P        1.41276025       0.23050257       5.79529022       0.00000000 NULL       0.03719900      -0.06321600       0.06046200
P       -1.36992563       2.30854103       4.98678592       0.00000000 NULL      -0.03418500      -0.02608700       0.02679300
P        0.26614405       4.22034680       2.51934037       0.00000000 NULL      -0.00549900       0.04264800       0.02679300
P        1.10378158       1.84756601       7.45423146       0.00000000 NULL       0.03968400      -0.01656200       0.02679100
P        0.36755512       1.31735258       4.02719885       0.00000000 NULL       0.08233200       0.04517100      -0.08725400
P       -1.46099070       3.21123855       1.55975331       0.00000000 NULL      -0.00204800      -0.09388700      -0.08725400
P        1.09343557       3.84786270       6.49464439       0.00000000 NULL      -0.08028500       0.04871600      -0.08725200
9
Lattice="4.835492637742772 -6.575165823307577e-16 -2.6806141789455974e-41 -2.4177463188713864 4.187659464097866 -8.04719420325347e-40 -4.149366805523905e-41 1.1978855280186119e-39 7.37802475999284" Properties=species:S:1:pos:R:3:initial_magmoms:R:1:castep_labels:S:1:forces:R:3 n_minim_iter=9 energy=-47.448961627141 stress="-0.0007283775142304927 6.693415863173063e-08 -0.0 6.693415863173063e-08 -0.0007284444483891244 0.0 -0.0 0.0 -0.0010142533057466141" free_energy=-47.448961627141 pbc="T T T"
P        1.89764905       2.86185133       3.33562371       0.00000000 NULL      -0.01374600       0.01694300      -0.03479800
P        3.94735775       1.11332151       0.87628212       0.00000000 NULL       0.02154900       0.00343400      -0.03479900
P        1.40823216       0.21248662       5.79496530       0.00000000 NULL      -0.00780200      -0.02037600      -0.03479800
P       -1.37328840       2.29955558       4.96494226       0.00000000 NULL       0.04326500      -0.08597500       0.03957700
P        0.26037143       4.22718432       2.50560067       0.00000000 NULL      -0.09608800       0.00552300       0.03957600
P        1.11291698       1.84857903       7.42428384       0.00000000 NULL       0.05282200       0.08045400       0.03957600
P        0.37195614       1.30877611       4.00072858       0.00000000 NULL       0.08032100       0.04410900      -0.00477800
P       -1.47029103       3.21114794       1.54138700       0.00000000 NULL      -0.00196300      -0.09161600      -0.00477900
P        1.09833489       3.85539488       6.46007017       0.00000000 NULL      -0.07835800       0.04750500      -0.00477800
9
Lattice="4.815216511366106 -1.043289372876961e-15 -2.689445677738501e-41 -2.407608255683053 4.170099823565329 -4.657438756553965e-40 -4.179865205803236e-41 -1.4590197581042677e-39 7.315925611217439" Properties=species:S:1:pos:R:3:initial_magmoms:R:1:castep_labels:S:1:forces:R:3 n_minim_iter=10 energy=-47.463194765781 stress="-0.004240339581002849 0.0 -0.0 0.0 -0.004240339581002849 0.0 -0.0 0.0 -0.0015568061102153592" free_energy=-47.463194765781 pbc="T T T"
P        1.87515682       2.91231198       3.33983655       0.00000000 NULL       0.10954000       0.09495700      -0.01144400
P        3.99216601       1.09001039       0.90119468       0.00000000 NULL       0.02746700      -0.14234300      -0.01144500
P        1.35550194       0.16777745       5.77847842       0.00000000 NULL      -0.13700600       0.04738500      -0.01144300
P       -1.34538217       2.21830675       4.92498002       0.00000000 NULL       0.00267400       0.08472500      -0.05797400
P        0.18619282       4.22608159       2.48633815       0.00000000 NULL       0.07203600      -0.04467600      -0.05797600
P        1.15918934       1.89581132       7.36362189       0.00000000 NULL      -0.07471000      -0.04004900      -0.05797600
P        0.41997168       1.28657203       3.93294053       0.00000000 NULL       0.07094600      -0.09634800       0.06941900
P       -1.50339004       3.16310767       1.49429866       0.00000000 NULL      -0.11891500      -0.01326700       0.06941900
P        1.08341836       3.89051996       6.37158240       0.00000000 NULL       0.04796800       0.10961700       0.06942000
9
Lattice="4.814816232274043 -6.032102420009439e-16 -3.4931134979028733e-41 -2.407408116137022 4.169753171702998 4.374567821271414e-39 -5.386726355495289e-41 -5.557354551909975e-39 7.3415209061494995" Properties=species:S:1:pos:R:3:initial_magmoms:R:1:castep_labels:S:1:forces:R:3 n_minim_iter=11 energy=-47.48175803203 stress="-0.001698591211088489 0.0 0.0 0.0 -0.001698523365138214 -0.0 0.0 -0.0 0.0030714540149060147" free_energy=-47.48175803203 pbc="T T T"
P        1.87738159       2.96136789       3.39441229       0.00000000 NULL       0.19987900       0.06142800      -0.08065200
P        4.03333714       1.06320908       0.94723866       0.00000000 NULL      -0.04674200      -0.20381400      -0.08065200
P        1.31150561       0.14517621       5.84158593       0.00000000 NULL      -0.15313800       0.14238700      -0.08065200
P       -1.29325799       2.19205200       4.91726591       0.00000000 NULL      -0.05347100       0.10339700      -0.03609400
P        0.13759359       4.19372144       2.47009228       0.00000000 NULL       0.11627900      -0.00539100      -0.03609400
P        1.15566439       1.95373290       7.36443955       0.00000000 NULL      -0.06280900      -0.09800400      -0.03609500
P        0.49351499       1.27035119       3.92875353       0.00000000 NULL       0.08050000      -0.18457500       0.11674600
P       -1.55400921       3.10718106       1.48157990       0.00000000 NULL      -0.20009500       0.02257200       0.11674600
P        1.06049422       3.96197410       6.37592717       0.00000000 NULL       0.11959700       0.16200100       0.11674700
9
Lattice="4.813428365931686 3.4276450981066936e-17 -3.4095766050357277e-41 -2.406714182965844 4.168551244193457 4.1861924616672454e-39 -5.255761400769766e-41 -1.6684388865476845e-38 7.344394826776307" Properties=species:S:1:pos:R:3:initial_magmoms:R:1:castep_labels:S:1:forces:R:3 n_minim_iter=12 energy=-47.529698601704 stress="0.003819756012829003 -0.0 0.0 -0.0 0.003819756012829003 0.0 0.0 0.0 0.009074108967694212" free_energy=-47.529698601704 pbc="T T T"
P        1.94515773       3.01843190       3.45083580       0.00000000 NULL       0.14020800      -0.19960200      -0.07651600
P        4.04817402       0.97477929       1.00270419       0.00000000 NULL      -0.24296600      -0.02162300      -0.07651700
P        1.22681080       0.17534007       5.89896741       0.00000000 NULL       0.10275500       0.22122600      -0.07651700
P       -1.18047860       2.19011275       4.88831634       0.00000000 NULL      -0.05715700       0.00543700       0.01475800
P        0.08021840       4.09581932       2.44018473       0.00000000 NULL       0.03328700       0.04678200       0.01475800
P        1.10026020       2.05117042       7.33644795       0.00000000 NULL       0.02387100      -0.05221900       0.01475800
P        0.64019095       1.22708405       3.90607108       0.00000000 NULL       0.08636000      -0.17241500       0.06175900
P       -1.66412370       3.00058760       1.45793947       0.00000000 NULL      -0.19249500       0.01141800       0.06175800
P        1.02393275       4.10943085       6.35420269       0.00000000 NULL       0.10613700       0.16099700       0.06176000
9
Lattice="4.829509527325797 2.0271116003322234e-16 1.2031296588902346e-42 -2.414754763662899 4.182477938483117 3.2053199351678167e-39 1.036429242355134e-42 -6.264257865728159e-39 7.279415796929514" Properties=species:S:1:pos:R:3:initial_magmoms:R:1:castep_labels:S:1:forces:R:3 n_minim_iter=13 energy=-47.607630145491 stress="0.006026894249738474 0.0 0.0 0.0 0.006026826240685678 -0.0 0.0 -0.0 0.01329957832859609" free_energy=-47.607630145491 pbc="T T T"
P        2.04844108       3.01229539       3.46819190       0.00000000 NULL      -0.06434100      -0.45651500       0.14742900
P        3.99925855       0.90232823       1.04171997       0.00000000 NULL      -0.36318300       0.28397900       0.14742800
P        1.19656466       0.26785432       5.89466383       0.00000000 NULL       0.42752500       0.17253600       0.14743000
P       -1.02162766       2.23212813       4.82238090       0.00000000 NULL      -0.10473800      -0.06157700       0.07799300
P        0.02913873       3.95116938       2.39590897       0.00000000 NULL      -0.00096000       0.12149200       0.07799300
P        0.99248893       2.18165837       7.24885284       0.00000000 NULL       0.10569500      -0.05991500       0.07799400
P        0.81293294       1.14189473       3.84631162       0.00000000 NULL       0.05769300      -0.02021300      -0.22542200
P       -1.83231139       2.90751000       1.41983969       0.00000000 NULL      -0.04635100      -0.03985700      -0.22542300
P        1.01937845       4.31555115       6.27278355       0.00000000 NULL      -0.01134100       0.06007100      -0.22542200
9
Lattice="4.852816496478 -6.729070113325165e-16 2.711344780073924e-41 -2.4264082482389995 4.202662365854147 4.73674619010156e-39 3.9820662544967753e-41 -3.5682872567172682e-40 7.160692071857843" Properties=species:S:1:pos:R:3:initial_magmoms:R:1:castep_labels:S:1:forces:R:3 n_minim_iter=14 energy=-47.659877655229 stress="0.005505185574876812 -0.0 -0.0 -0.0 0.005505185574876812 0.0 -0.0 0.0 0.011732294226396402" free_energy=-47.659877655229 pbc="T T T"
P        2.11051560       2.99434370       3.44454565       0.00000000 NULL      -0.22622900      -0.54819600       0.25050700
P        3.96432816       0.87773040       1.05764829       0.00000000 NULL      -0.36163800       0.47001700       0.25050700
P        1.20438099       0.33058827       5.83144300       0.00000000 NULL       0.58786500       0.07817900       0.25050600
P       -0.92746142       2.26587672       4.74042550       0.00000000 NULL      -0.21130800      -0.06961600       0.08614900
P       -0.00037073       3.87292916       2.35352814       0.00000000 NULL       0.04536600       0.21780700       0.08614900
P        0.92783215       2.26651885       7.12732286       0.00000000 NULL       0.16594500      -0.14819200       0.08614900
P        0.90891982       1.08192611       3.75396632       0.00000000 NULL       0.03228500       0.11029900      -0.33665600
P       -1.94389267       2.87455165       1.36706897       0.00000000 NULL       0.07937800      -0.08310900      -0.33665500
P        1.03497284       4.44884697       6.14086368       0.00000000 NULL      -0.11166400      -0.02718900      -0.33665600
9
Lattice="4.869641596976016 4.0930772871137735e-17 -1.2212556505849895e-41 -2.434820798488008 4.217233330306655 4.302603290963612e-39 -1.782478594884591e-41 -2.083843776587813e-39 7.11685267459972" Properties=species:S:1:pos:R:3:initial_magmoms:R:1:castep_labels:S:1:forces:R:3 n_minim_iter=15 energy=-47.688613425112 stress="0.004333081541522819 0.0 0.0 0.0 0.004332944700166699 0.0 0.0 0.0 0.00509590368121077" free_energy=-47.688613425112 pbc="T T T"
P        2.12536370       2.96678651       3.41754837       0.00000000 NULL      -0.28996300      -0.40741800       0.40905900
P        3.94145144       0.89322112       1.04526414       0.00000000 NULL      -0.20785200       0.45482500       0.40905600
P        1.23764726       0.35722570       5.78983259       0.00000000 NULL       0.49781700      -0.04740700       0.40906000
P       -0.92394178       2.29657393       4.71754772       0.00000000 NULL      -0.12940500      -0.20625200       0.08370500
P        0.01604146       3.86910341       2.34526350       0.00000000 NULL      -0.11391800       0.21519100       0.08370600
P        0.90790032       2.26878932       7.08983195       0.00000000 NULL       0.24332100      -0.00894100       0.08370600
P        0.90706579       1.07549092       3.73074837       0.00000000 NULL       0.05607800       0.20326500      -0.49276500
P       -1.95695123       2.89394585       1.35846414       0.00000000 NULL       0.14799400      -0.15019700      -0.49276500
P        1.04988544       4.46502989       6.10303259       0.00000000 NULL      -0.20407100      -0.05306600      -0.49276200
9
Lattice="4.897157293961004 1.311033337276616e-15 -2.449842434682646e-40 -2.4485786469805033 4.241062622898488 2.3808015295153117e-39 -3.5721554533995726e-40 1.8814912049998413e-38 6.8507528583206865" Properties=species:S:1:pos:R:3:initial_magmoms:R:1:castep_labels:S:1:forces:R:3 n_minim_iter=16 energy=-47.812031781658 stress="-0.006431629019887293 -0.0 -0.0 -0.0 -0.0064314884562667865 0.0 -0.0 0.0 -0.006083804340944398" free_energy=-47.812031781658 pbc="T T T"
P        2.13664659       2.92969034       3.33503022       0.00000000 NULL      -0.29970400      -0.42859700       0.31685500
P        3.91744161       0.92582723       1.05144593       0.00000000 NULL      -0.22132400       0.47384800       0.31685400
P        1.29164774       0.38554506       5.61861450       0.00000000 NULL       0.52102700      -0.04525200       0.31685600
P       -0.87876557       2.28846122       4.55730349       0.00000000 NULL      -0.29239600      -0.04429800      -0.00664600
P       -0.02733031       3.85786533       2.27371920       0.00000000 NULL       0.10783500       0.27537500      -0.00664600
P        0.90609588       2.33579870       6.84088778       0.00000000 NULL       0.18456200      -0.23107500      -0.00664700
P        0.95488505       0.99451032       3.52984515       0.00000000 NULL       0.14555800       0.38348400      -0.31020900
P       -2.06474997       2.91685276       1.24626087       0.00000000 NULL       0.25932800      -0.31780000      -0.31020900
P        1.10986492       4.57076218       5.81342944       0.00000000 NULL      -0.40488600      -0.06568500      -0.31020800
9
Lattice="4.946800882111167 1.2894946723372934e-15 -5.814692040490472e-40 -2.473400441055585 4.28405523137154 9.142103131469053e-40 -8.37767244024539e-40 1.4168303292947416e-38 6.729383623480202" Properties=species:S:1:pos:R:3:initial_magmoms:R:1:castep_labels:S:1:forces:R:3 n_minim_iter=17 energy=-47.938174476513 stress="-0.013788291325862791 0.0 0.0 0.0 -0.01378836144639619 0.0 0.0 0.0 -0.0034758047200256956" free_energy=-47.938174476513 pbc="T T T"
P        2.12785778       2.88987185       3.29714359       0.00000000 NULL      -0.04574100      -0.09251300       0.11332600
P        3.91217398       0.99634042       1.05401571       0.00000000 NULL      -0.05724900       0.08586900       0.11332300
P        1.38016956       0.39784297       5.54027146       0.00000000 NULL       0.10299000       0.00664300       0.11332600
P       -0.89639451       2.31129347       4.48299680       0.00000000 NULL      -0.29457200      -0.14539400      -0.02080900
P       -0.02356433       3.90470892       2.23986893       0.00000000 NULL       0.02137100       0.32780200      -0.02081000
P        0.91995884       2.35210808       6.72612468       0.00000000 NULL       0.27320100      -0.18240900      -0.02080800
P        0.96723500       1.00075069       3.43968067       0.00000000 NULL       0.20172500       0.15973600      -0.09251600
P       -2.09034242       2.94602981       1.19655280       0.00000000 NULL       0.03747200      -0.25456700      -0.09251700
P        1.12310742       4.62132997       5.68280855       0.00000000 NULL      -0.23919700       0.09483300      -0.09251400
9
Lattice="5.08581156994316 4.2062400628773826e-16 -1.3283893780297473e-39 -2.5429057849715817 4.404442018431595 -2.8399585828580304e-39 -1.911620432633501e-39 7.085058403747902e-39 6.411709381726191" Properties=species:S:1:pos:R:3:initial_magmoms:R:1:castep_labels:S:1:forces:R:3 n_minim_iter=18 energy=-48.059561964969 stress="-0.019456727135980522 -0.0 0.0 -0.0 -0.019456796762550195 -0.0 0.0 -0.0 -0.018065449020754708" free_energy=-48.059561964969 pbc="T T T"
P        2.13811421       2.91231722       3.16449848       0.00000000 NULL       0.38479900       0.26358400       0.25169500
P        3.99598938       1.09662218       1.02726202       0.00000000 NULL       0.03587100      -0.46503600       0.25169800
P        1.49461377       0.39550262       5.30173494       0.00000000 NULL      -0.42066900       0.20145400       0.25169400
P       -0.97081857       2.33088224       4.28771220       0.00000000 NULL      -0.29096700       0.06379900      -0.17849900
P       -0.03889327       4.07975444       2.15047574       0.00000000 NULL       0.20073400       0.22008400      -0.17849700
P        1.00971184       2.39824736       6.42494866       0.00000000 NULL       0.09023100      -0.28388300      -0.17849700
P        1.01962698       1.04790989       3.23795608       0.00000000 NULL       0.07575900      -0.21442100      -0.07319700
P       -2.14520269       2.99746421       1.10071962       0.00000000 NULL      -0.22357300       0.04160100      -0.07319700
P        1.12557571       4.76350994       5.37519254       0.00000000 NULL       0.14781400       0.17281900      -0.07320000
9
Lattice="5.19875278982378 1.0941247215020975e-16 -1.4410681264756773e-39 -2.599376394911892 4.5022519839826165 8.0253826471124e-39 -2.1184243462851732e-39 -1.1503731735093517e-38 6.321457168023278" Properties=species:S:1:pos:R:3:initial_magmoms:R:1:castep_labels:S:1:forces:R:3 n_minim_iter=19 energy=-48.161675334745 stress="-0.009681359157332578 0.0 -0.0 0.0 -0.009681426742878821 -0.0 -0.0 -0.0 -0.008668860089044463" free_energy=-48.161675334745 pbc="T T T"
P        2.22960529       2.94427367       3.16815111       0.00000000 NULL       0.38632700       0.37906700      -0.08848200
P        4.03438954       1.09922033       1.06099872       0.00000000 NULL       0.13511800      -0.52410200      -0.08848000
P        1.53413435       0.45875799       5.27530349       0.00000000 NULL      -0.52144400       0.14503500      -0.08848200
P       -0.99179001       2.39858957       4.20842711       0.00000000 NULL      -0.35886800      -0.15448900      -0.01790300
P       -0.02624189       4.16187255       2.10127472       0.00000000 NULL       0.04564400       0.38803200      -0.01790400
P        1.01803190       2.44404185       6.31557950       0.00000000 NULL       0.31322400      -0.23354400      -0.01790300
P        1.11711185       1.07594023       3.16311226       0.00000000 NULL      -0.00808800      -0.44082400       0.10638500
P       -2.22614075       2.99683463       1.05595987       0.00000000 NULL      -0.37772200       0.22741600       0.10638500
P        1.10902890       4.93172911       5.27026465       0.00000000 NULL       0.38580900       0.21340900       0.10638400
9
Lattice="5.213999287984948 -6.372715904509064e-16 -1.4281747127350321e-39 -2.6069996439924754 4.515455838708942 8.405242339261045e-39 -2.10530905213372e-39 -1.300495075375923e-38 6.334625568530996" Properties=species:S:1:pos:R:3:initial_magmoms:R:1:castep_labels:S:1:forces:R:3 n_minim_iter=20 energy=-48.215517483922 stress="-0.007060892171810569 -0.0 -0.0 -0.0 -0.007060892171810569 0.0 -0.0 0.0 -0.006023610327491067" free_energy=-48.215517483922 pbc="T T T"
P        2.24586878       2.96925924       3.18264195       0.00000000 NULL       0.23186400       0.18294400      -0.21874900
P        4.05551918       1.08584680       1.07110009       0.00000000 NULL       0.04250200      -0.29227400      -0.21875200
P        1.51961097       0.46034980       5.29418380       0.00000000 NULL      -0.27436800       0.10933000      -0.21874800
P       -1.03391094       2.39237759       4.21181332       0.00000000 NULL      -0.16597900      -0.18379700       0.08370100
P       -0.01818441       4.21466018       2.10027146       0.00000000 NULL      -0.07618400       0.23564300       0.08370100
P        1.05209535       2.42387391       6.32335518       0.00000000 NULL       0.24216400      -0.05184600       0.08370100
P        1.11370379       1.08788653       3.16719089       0.00000000 NULL       0.16052800      -0.29123700       0.13504800
P       -2.22171416       3.00701680       1.05564904       0.00000000 NULL      -0.33248200       0.00659700       0.13504800
P        1.10801038       4.93600835       5.27873275       0.00000000 NULL       0.17195400       0.28463900       0.13505100
9
Lattice="5.241490761516135 -1.1923582104480598e-15 -1.4113694738414313e-39 -2.6207453807580685 4.539264153174417 5.0302655341059603e-39 -2.0915682610465524e-39 -1.2592819024338868e-38 6.350777392842241" Properties=species:S:1:pos:R:3:initial_magmoms:R:1:castep_labels:S:1:forces:R:3 n_minim_iter=21 energy=-48.257308682705 stress="-0.007999818177800646 0.0 -0.0 0.0 -0.007999884358728341 -0.0 -0.0 -0.0 -0.003669004450430104" free_energy=-48.257308682705 pbc="T T T"
P        2.27180808       2.98890926       3.20091103       0.00000000 NULL       0.09145900       0.02977200      -0.23513800
P        4.07331269       1.07736601       1.08398523       0.00000000 NULL      -0.01994500      -0.09409000      -0.23513600
P        1.51711537       0.47298888       5.31783682       0.00000000 NULL      -0.07151200       0.06431800      -0.23513900
P       -1.05210863       2.38390154       4.21461154       0.00000000 NULL      -0.10839000       0.01380600       0.03611300
P       -0.03017177       4.25846619       2.09768574       0.00000000 NULL       0.06615200       0.08696200       0.03611300
P        1.08228040       2.43616058       6.33153734       0.00000000 NULL       0.04223700      -0.10077000       0.03611300
P        1.15813410       1.07678428       3.17305365       0.00000000 NULL      -0.00288700      -0.06586700       0.19902600
P       -2.26728989       2.99789846       1.05612785       0.00000000 NULL      -0.05560000       0.03543300       0.19902500
P        1.10915579       5.00384556       5.28997944       0.00000000 NULL       0.05848600       0.03043500       0.19902200
