8
Lattice="3.938869999999999 0.0 0.0 0.0 6.82519 0.0 0.0 0.0 6.82519" Properties=species:S:1:pos:R:3:initial_magmoms:R:1:castep_labels:S:1 n_minim_iter=1 pbc="T T T"
P        2.80223816       5.38687608       5.31357831       0.00000000 NULL
P        2.80223816       1.43831392       1.51161169       0.00000000 NULL
P        0.83280316       5.31357831       1.43831392       0.00000000 NULL
P        0.83280316       1.51161169       5.38687608       0.00000000 NULL
P        3.24945982       3.54561864       4.41825808       0.00000000 NULL
P        3.24945982       3.27957136       2.40693192       0.00000000 NULL
P        1.28002482       4.41825808       3.27957136       0.00000000 NULL
P        1.28002482       2.40693192       3.54561864       0.00000000 NULL
8
Lattice="3.9440710533911494 0.0 0.0 0.0 6.829824764450846 0.0 0.0 0.0 6.829824764450846" Properties=species:S:1:pos:R:3:initial_magmoms:R:1:castep_labels:S:1 n_minim_iter=2 pbc="T T T"
P        2.80590173       5.39056455       5.31716673       0.00000000 NULL
P        2.80590173       1.43926022       1.51265804       0.00000000 NULL
P        0.83386620       5.31716673       1.43926022       0.00000000 NULL
P        0.83386620       1.51265804       5.39056455       0.00000000 NULL
P        3.25378717       3.54799822       4.42168728       0.00000000 NULL
P        3.25378717       3.28182654       2.40813748       0.00000000 NULL
P        1.28175165       4.42168728       3.28182654       0.00000000 NULL
P        1.28175165       2.40813748       3.54799822       0.00000000 NULL
8
Lattice="4.212785211758121 0.0 0.0 0.0 7.062570461543611 0.0 0.0 0.0 7.062570461543611" Properties=species:S:1:pos:R:3:initial_magmoms:R:1:castep_labels:S:1 n_minim_iter=3 pbc="T T T"
P        2.99506158       5.57577177       5.49727254       0.00000000 NULL
P        2.99506158       1.48679869       1.56529793       0.00000000 NULL
P        0.88866897       5.49727254       1.48679869       0.00000000 NULL
P        0.88866897       1.56529793       5.57577177       0.00000000 NULL
P        3.47748099       3.66742191       4.59464289       0.00000000 NULL
P        3.47748099       3.39514855       2.46792758       0.00000000 NULL
P        1.37108839       4.59464289       3.39514855       0.00000000 NULL
P        1.37108839       2.46792758       3.66742191       0.00000000 NULL
8
Lattice="4.310699715134697 0.0 0.0 0.0 7.045918653171826 0.0 0.0 0.0 7.045918653171826" Properties=species:S:1:pos:R:3:initial_magmoms:R:1:castep_labels:S:1 n_minim_iter=4 pbc="T T T"
P        3.06106997       5.56016863       5.48031380       0.00000000 NULL
P        3.06106997       1.48575003       1.56560486       0.00000000 NULL
P        0.90572011       5.48031380       1.48575003       0.00000000 NULL
P        0.90572011       1.56560486       5.56016863       0.00000000 NULL
P        3.56190889       3.65661098       4.59932301       0.00000000 NULL
P        3.56190889       3.38930767       2.44659565       0.00000000 NULL
P        1.40655904       4.59932301       3.38930767       0.00000000 NULL
P        1.40655904       2.44659565       3.65661098       0.00000000 NULL
8
Lattice="4.369974930216291 0.0 0.0 0.0 6.956467626460866 0.0 0.0 0.0 6.956467626460866" Properties=species:S:1:pos:R:3:initial_magmoms:R:1:castep_labels:S:1 n_minim_iter=5 pbc="T T T"
P        3.09778794       5.48662018       5.40515367       0.00000000 NULL
P        3.09778794       1.46984745       1.55131396       0.00000000 NULL
P        0.91280047       5.40515367       1.46984745       0.00000000 NULL
P        0.91280047       1.55131396       5.48662018       0.00000000 NULL
P        3.61626164       3.60568678       4.55747618       0.00000000 NULL
P        3.61626164       3.35078084       2.39899145       0.00000000 NULL
P        1.43127417       4.55747618       3.35078084       0.00000000 NULL
P        1.43127417       2.39899145       3.60568678       0.00000000 NULL
8
Lattice="4.483755316034023 0.0 0.0 0.0 6.827381970437751 0.0 0.0 0.0 6.827381970437751" Properties=species:S:1:pos:R:3:initial_magmoms:R:1:castep_labels:S:1 n_minim_iter=6 pbc="T T T"
P        3.16420012       5.38231228       5.29390687       0.00000000 NULL
P        3.16420012       1.44506969       1.53347510       0.00000000 NULL
P        0.92232246       5.29390687       1.44506969       0.00000000 NULL
P        0.92232246       1.53347510       5.38231228       0.00000000 NULL
P        3.72466216       3.52399988       4.50425469       0.00000000 NULL
P        3.72466216       3.30338209       2.32312728       0.00000000 NULL
P        1.48278450       4.50425469       3.30338209       0.00000000 NULL
P        1.48278450       2.32312728       3.52399988       0.00000000 NULL
8
Lattice="4.548793231712331 0.0 0.0 0.0 6.7493057158343035 0.0 0.0 0.0 6.7493057158343035" Properties=species:S:1:pos:R:3:initial_magmoms:R:1:castep_labels:S:1 n_minim_iter=7 pbc="T T T"
P        3.19541801       5.32299814       5.22520412       0.00000000 NULL
P        3.19541801       1.42630758       1.52410159       0.00000000 NULL
P        0.92102139       5.22520412       1.42630758       0.00000000 NULL
P        0.92102139       1.52410159       5.32299814       0.00000000 NULL
P        3.79336882       3.46624637       4.47187854       0.00000000 NULL
P        3.79336882       3.28305934       2.27742718       0.00000000 NULL
P        1.51897221       4.47187854       3.28305934       0.00000000 NULL
P        1.51897221       2.27742718       3.46624637       0.00000000 NULL
8
Lattice="4.573346322426136 0.0 0.0 0.0 6.675373401673182 0.0 0.0 0.0 6.675373401673182" Properties=species:S:1:pos:R:3:initial_magmoms:R:1:castep_labels:S:1 n_minim_iter=8 pbc="T T T"
P        3.20134285       5.26709987       5.16196552       0.00000000 NULL
P        3.20134285       1.40827353       1.51340788       0.00000000 NULL
P        0.91466969       5.16196552       1.40827353       0.00000000 NULL
P        0.91466969       1.51340788       5.26709987       0.00000000 NULL
P        3.82516747       3.41504582       4.43438475       0.00000000 NULL
P        3.82516747       3.26032758       2.24098865       0.00000000 NULL
P        1.53849431       4.43438475       3.26032758       0.00000000 NULL
P        1.53849431       2.24098865       3.41504582       0.00000000 NULL
8
Lattice="4.6112781538600505 0.0 0.0 0.0 6.615656530085853 0.0 0.0 0.0 6.615656530085853" Properties=species:S:1:pos:R:3:initial_magmoms:R:1:castep_labels:S:1 n_minim_iter=9 pbc="T T T"
P        3.21579863       5.22354557       5.11005657       0.00000000 NULL
P        3.21579863       1.39211096       1.50559996       0.00000000 NULL
P        0.91015956       5.11005657       1.39211096       0.00000000 NULL
P        0.91015956       1.50559996       5.22354557       0.00000000 NULL
P        3.86899032       3.37046548       4.40597558       0.00000000 NULL
P        3.86899032       3.24519105       2.20968095       0.00000000 NULL
P        1.56335124       4.40597558       3.24519105       0.00000000 NULL
P        1.56335124       2.20968095       3.37046548       0.00000000 NULL
8
Lattice="4.663839449378967 0.0 0.0 0.0 6.509008728384883 0.0 0.0 0.0 6.509008728384883" Properties=species:S:1:pos:R:3:initial_magmoms:R:1:castep_labels:S:1 n_minim_iter=10 pbc="T T T"
P        3.23136217       5.14522305       5.01820189       0.00000000 NULL
P        3.23136217       1.36378568       1.49080684       0.00000000 NULL
P        0.89944244       5.01820189       1.36378568       0.00000000 NULL
P        0.89944244       1.49080684       5.14522305       0.00000000 NULL
P        3.93418220       3.29304423       4.35247720       0.00000000 NULL
P        3.93418220       3.21596449       2.15653153       0.00000000 NULL
P        1.60226248       4.35247720       3.21596449       0.00000000 NULL
P        1.60226248       2.15653153       3.29304423       0.00000000 NULL
8
Lattice="4.874137809961393 0.0 0.0 0.0 6.311895743450057 0.0 0.0 0.0 6.311895743450057" Properties=species:S:1:pos:R:3:initial_magmoms:R:1:castep_labels:S:1 n_minim_iter=11 pbc="T T T"
P        3.30386040       5.00811605       4.83872284       0.00000000 NULL
P        3.30386040       1.30377969       1.47317290       0.00000000 NULL
P        0.86679150       4.83872284       1.30377969       0.00000000 NULL
P        0.86679150       1.47317290       5.00811605       0.00000000 NULL
P        4.18478732       3.12318877       4.27181787       0.00000000 NULL
P        4.18478732       3.18870698       2.04007788       0.00000000 NULL
P        1.74771841       4.27181787       3.18870698       0.00000000 NULL
P        1.74771841       2.04007788       3.12318877       0.00000000 NULL
8
Lattice="4.788663856560215 0.0 0.0 0.0 5.808538918824504 0.0 0.0 0.0 5.808538918824504" Properties=species:S:1:pos:R:3:initial_magmoms:R:1:castep_labels:S:1 n_minim_iter=12 pbc="T T T"
P        3.22127196       4.60630477       4.44007089       0.00000000 NULL
P        3.22127196       1.20223415       1.36846802       0.00000000 NULL
P        0.82694003       4.44007089       1.20223415       0.00000000 NULL
P        0.82694003       1.36846802       4.60630477       0.00000000 NULL
P        4.13605317       2.85822392       3.94226303       0.00000000 NULL
P        4.13605317       2.95031500       1.86627589       0.00000000 NULL
P        1.74172124       3.94226303       2.95031500       0.00000000 NULL
P        1.74172124       1.86627589       2.85822392       0.00000000 NULL
8
Lattice="5.017427362185283 0.0 0.0 0.0 6.121710280366148 0.0 0.0 0.0 6.121710280366148" Properties=species:S:1:pos:R:3:initial_magmoms:R:1:castep_labels:S:1 n_minim_iter=13 pbc="T T T"
P        3.37003083       4.86140627       4.68216508       0.00000000 NULL
P        3.37003083       1.26030401       1.43954520       0.00000000 NULL
P        0.86131715       4.68216508       1.26030401       0.00000000 NULL
P        0.86131715       1.43954520       4.86140627       0.00000000 NULL
P        4.33876761       3.00690888       4.16118619       0.00000000 NULL
P        4.33876761       3.11480140       1.96052409       0.00000000 NULL
P        1.83005392       4.16118619       3.11480140       0.00000000 NULL
P        1.83005392       1.96052409       3.00690888       0.00000000 NULL
8
Lattice="5.016945051029817 0.0 0.0 0.0 6.089472209834802 0.0 0.0 0.0 6.089472209834802" Properties=species:S:1:pos:R:3:initial_magmoms:R:1:castep_labels:S:1 n_minim_iter=14 pbc="T T T"
P        3.36709778       4.83606407       4.65655924       0.00000000 NULL
P        3.36709778       1.25340814       1.43291297       0.00000000 NULL
P        0.85862526       4.65655924       1.25340814       0.00000000 NULL
P        0.85862526       1.43291297       4.83606407       0.00000000 NULL
P        4.34095963       2.98933030       4.14088315       0.00000000 NULL
P        4.34095963       3.10014191       1.94858906       0.00000000 NULL
P        1.83248710       4.14088315       3.10014191       0.00000000 NULL
P        1.83248710       1.94858906       2.98933030       0.00000000 NULL
