8
Lattice="5.30435 7.828437670708117e-17 -2.211208397235776e-17 -2.6057818904487067 5.1915036022629835 -2.1469382138935817e-16 -0.804410388183878 -1.9567530704902176 6.567419995470747" Properties=species:S:1:pos:R:3:initial_magmoms:R:1:castep_labels:S:1 n_minim_iter=1 pbc="T T T"
P        0.67289760       4.88206834       0.04037650       0.00000000 NULL
P        1.46714382      -0.56015730       2.49639915       0.00000000 NULL
P        4.14954493      -1.03365849       3.75823171       0.00000000 NULL
P       -1.34064684       1.27945578       3.83906285       0.00000000 NULL
P        0.53719680      -0.06349278       4.22696489       0.00000000 NULL
P        1.74791017       3.55448722       1.16871114       0.00000000 NULL
P        1.89110815      -0.59193781       5.61641752       0.00000000 NULL
P        1.55509215       2.88441658       5.39043128       0.00000000 NULL
8
Lattice="5.309882686507256 -0.00027377263290867543 0.0004237877006638513 -2.608767791815715 5.195161326488709 -0.0022216526623753436 -0.8046237325600548 -1.9605866088225496 6.573505609898145" Properties=species:S:1:pos:R:3:initial_magmoms:R:1:castep_labels:S:1 n_minim_iter=2 pbc="T T T"
P        0.67317525       4.88526766       0.03862335       0.00000000 NULL
P        1.46893812      -0.56163108       2.49859121       0.00000000 NULL
P        4.15390266      -1.03605635       3.76182432       0.00000000 NULL
P       -1.34177247       1.27884924       3.84160683       0.00000000 NULL
P        0.53810239      -0.06493348       4.23049058       0.00000000 NULL
P        1.74980577       3.55623837       1.16858349       0.00000000 NULL
P        1.89368871      -0.59442539       5.62156677       0.00000000 NULL
P        1.55713223       2.88405428       5.39393021       0.00000000 NULL
8
Lattice="5.501546236641143 -0.009613740682198202 0.015575845107357081 -2.7120644984378086 5.3210979840989285 -0.08037132186864929 -0.8114841800833028 -2.0943537369802807 6.782662640506001" Properties=species:S:1:pos:R:3:initial_magmoms:R:1:castep_labels:S:1 n_minim_iter=3 pbc="T T T"
P        0.68279299       4.99536326      -0.02293207       0.00000000 NULL
P        1.53128663      -0.61295996       2.57391290       0.00000000 NULL
P        4.30476877      -1.11944725       3.88555767       0.00000000 NULL
P       -1.38030058       1.25681783       3.92826835       0.00000000 NULL
P        0.56982195      -0.11542688       4.35124935       0.00000000 NULL
P        1.81589648       3.61614131       1.16351549       0.00000000 NULL
P        1.98371098      -0.68145760       5.79859722       0.00000000 NULL
P        1.62848395       2.87006183       5.51330705       0.00000000 NULL
8
Lattice="5.556854947975774 0.0012372723017120754 0.030788859281360086 -2.7286149457849223 5.33556371421855 -0.12742337915141866 -0.8050391682441697 -2.153529047310835 6.78991618128339" Properties=species:S:1:pos:R:3:initial_magmoms:R:1:castep_labels:S:1 n_minim_iter=4 pbc="T T T"
P        0.69722092       5.01251281      -0.05807609       0.00000000 NULL
P        1.55193475      -0.63184013       2.57630822       0.00000000 NULL
P        4.34738905      -1.14369901       3.89746543       0.00000000 NULL
P       -1.37795727       1.22574233       3.91158585       0.00000000 NULL
P        0.58707059      -0.14016344       4.34779678       0.00000000 NULL
P        1.84989733       3.62287894       1.14472896       0.00000000 NULL
P        2.02155306      -0.71761144       5.80759135       0.00000000 NULL
P        1.66799906       2.84028441       5.49414582       0.00000000 NULL
8
Lattice="5.595937797306713 0.01801733272460412 0.04359224007677091 -2.7313914663542787 5.320196711024956 -0.18041546050479507 -0.801304102818952 -2.212468734077387 6.749964287353745" Properties=species:S:1:pos:R:3:initial_magmoms:R:1:castep_labels:S:1 n_minim_iter=5 pbc="T T T"
P        0.71474074       5.00400184      -0.10061224       0.00000000 NULL
P        1.56596742      -0.64981372       2.55770130       0.00000000 NULL
P        4.37152382      -1.16244944       3.87909058       0.00000000 NULL
P       -1.37018278       1.17887701       3.86451869       0.00000000 NULL
P        0.59898242      -0.16788524       4.31134092       0.00000000 NULL
P        1.88421930       3.61135021       1.11293570       0.00000000 NULL
P        2.05135938      -0.75441539       5.77450611       0.00000000 NULL
P        1.70398828       2.78930067       5.43001384       0.00000000 NULL
8
Lattice="5.633844352397599 0.038474713509388865 0.04277203971550223 -2.7299910400528566 5.272790168369569 -0.24645430822642594 -0.8156148231924322 -2.285541799921071 6.667270327740672" Properties=species:S:1:pos:R:3:initial_magmoms:R:1:castep_labels:S:1 n_minim_iter=6 pbc="T T T"
P        0.73389499       4.96557622      -0.16315487       0.00000000 NULL
P        1.57314052      -0.67375975       2.51181410       0.00000000 NULL
P        4.37800110      -1.18530723       3.82157344       0.00000000 NULL
P       -1.36832145       1.10507443       3.78573795       0.00000000 NULL
P        0.59547212      -0.20684516       4.24043748       0.00000000 NULL
P        1.92272072       3.57432629       1.05706958       0.00000000 NULL
P        2.06816055      -0.80349958       5.69650584       0.00000000 NULL
P        1.72967272       2.70048687       5.30955509       0.00000000 NULL
8
Lattice="5.676405695746483 0.05356780736117201 0.013810097353557965 -2.7361274614109625 5.215015222907416 -0.31653196942588935 -0.863495427571495 -2.3754980780927943 6.591226100761937" Properties=species:S:1:pos:R:3:initial_magmoms:R:1:castep_labels:S:1 n_minim_iter=7 pbc="T T T"
P        0.74744792       4.91316109      -0.24485208       0.00000000 NULL
P        1.57058244      -0.70681058       2.45111566       0.00000000 NULL
P        4.36398781      -1.22133298       3.74151933       0.00000000 NULL
P       -1.38778969       1.01471519       3.70727063       0.00000000 NULL
P        0.56362102      -0.25821399       4.16656951       0.00000000 NULL
P        1.95868593       3.51904219       0.98128590       0.00000000 NULL
P        2.05911374      -0.86826877       5.60892507       0.00000000 NULL
P        1.72735153       2.58280733       5.16788672       0.00000000 NULL
8
Lattice="5.669449613658304 0.06287037860114608 -0.02843849019136216 -2.723605594483536 5.119897919035442 -0.4341865140994431 -0.9181810174679739 -2.517872470778046 6.427798332958749" Properties=species:S:1:pos:R:3:initial_magmoms:R:1:castep_labels:S:1 n_minim_iter=8 pbc="T T T"
P        0.74963653       4.81798127      -0.37892366       0.00000000 NULL
P        1.54745894      -0.76289388       2.33462694       0.00000000 NULL
P        4.28441304      -1.29197827       3.59324132       0.00000000 NULL
P       -1.40051588       0.87251437       3.55543894       0.00000000 NULL
P        0.50303161      -0.34409845       4.02247038       0.00000000 NULL
P        1.99114925       3.41143383       0.85277411       0.00000000 NULL
P        2.02487769      -0.97632402       5.43608202       0.00000000 NULL
P        1.69573583       2.37917033       4.90593763       0.00000000 NULL
8
Lattice="5.715966146864216 0.01741798795564137 -0.07367197833724737 -2.790942438696687 5.1789047779088575 -0.46621871690880945 -0.964472569136058 -2.593436323100834 6.508386195566753" Properties=species:S:1:pos:R:3:initial_magmoms:R:1:castep_labels:S:1 n_minim_iter=9 pbc="T T T"
P        0.71059568       4.84235253      -0.43410220       0.00000000 NULL
P        1.54353445      -0.80656051       2.32974490       0.00000000 NULL
P        4.27918542      -1.37518150       3.59491580       0.00000000 NULL
P       -1.45278157       0.85394888       3.58513612       0.00000000 NULL
P        0.46171753      -0.38282148       4.05678771       0.00000000 NULL
P        1.98457525       3.39739164       0.81638476       0.00000000 NULL
P        2.00339519      -1.04311128       5.48034319       0.00000000 NULL
P        1.64423338       2.32408237       4.90846880       0.00000000 NULL
8
Lattice="5.651877891913213 0.01094583945599756 -0.07240088150313867 -2.765793300368431 5.147776823956889 -0.4766765610604829 -0.9507921971287393 -2.5919634353260523 6.450168303709839" Properties=species:S:1:pos:R:3:initial_magmoms:R:1:castep_labels:S:1 n_minim_iter=10 pbc="T T T"
P        0.69813244       4.80849931      -0.44454015       0.00000000 NULL
P        1.52333627      -0.80967904       2.30432345       0.00000000 NULL
P        4.22678462      -1.38119070       3.56178893       0.00000000 NULL
P       -1.43617247       0.83991693       3.54687822       0.00000000 NULL
P        0.45546465      -0.38826398       4.01693493       0.00000000 NULL
P        1.96521949       3.36668947       0.80041167       0.00000000 NULL
P        1.98353699      -1.04897829       5.43174821       0.00000000 NULL
P        1.62284134       2.29140692       4.85365177       0.00000000 NULL
8
Lattice="5.637480677933957 -0.0029708070856914823 -0.08384672151254223 -2.7723411943031318 5.146884152641823 -0.48792446123870664 -0.9576463694977427 -2.6082816810641947 6.447259804173671" Properties=species:S:1:pos:R:3:initial_magmoms:R:1:castep_labels:S:1 n_minim_iter=11 pbc="T T T"
P        0.68354730       4.79829870      -0.46237779       0.00000000 NULL
P        1.51286851      -0.82113828       2.29344924       0.00000000 NULL
P        4.20385388      -1.40379031       3.54924281       0.00000000 NULL
P       -1.44329143       0.82982912       3.53952259       0.00000000 NULL
P        0.44348176      -0.39950028       4.00951259       0.00000000 NULL
P        1.95550429       3.34910018       0.78479577       0.00000000 NULL
P        1.96915817      -1.06769088       5.42333940       0.00000000 NULL
P        1.60061334       2.26362481       4.83256881       0.00000000 NULL
8
Lattice="5.611336114260178 -0.03439017785264015 -0.10855299782832603 -2.790248524317671 5.146690052872019 -0.5130984913538174 -0.9726803669253422 -2.644825833569622 6.447926268271605" Properties=species:S:1:pos:R:3:initial_magmoms:R:1:castep_labels:S:1 n_minim_iter=12 pbc="T T T"
P        0.65141311       4.77718572      -0.50195383       0.00000000 NULL
P        1.49129923      -0.84658150       2.27276717       0.00000000 NULL
P        4.15856283      -1.45476290       3.52665482       0.00000000 NULL
P       -1.46050495       0.80834002       3.52733850       0.00000000 NULL
P        0.41891448      -0.42442907       3.99764523       0.00000000 NULL
P        1.93527985       3.31112429       0.75143211       0.00000000 NULL
P        1.93981150      -1.11019281       5.41086443       0.00000000 NULL
P        1.55340410       2.20290742       4.79189559       0.00000000 NULL
8
Lattice="5.590005544505422 -0.06842895644573875 -0.13269704100274535 -2.813084428679716 5.1463704065255 -0.5408695129184276 -0.986782010951621 -2.6833762957512635 6.45596664328253" Properties=species:S:1:pos:R:3:initial_magmoms:R:1:castep_labels:S:1 n_minim_iter=13 pbc="T T T"
P        0.61759953       4.75454154      -0.54440245       0.00000000 NULL
P        1.47026907      -0.87322999       2.25515110       0.00000000 NULL
P        4.11781300      -1.50989754       3.50977346       0.00000000 NULL
P       -1.47960576       0.78611011       3.51853932       0.00000000 NULL
P        0.39699186      -0.45084237       3.98987115       0.00000000 NULL
P        1.91548394       3.27052922       0.71748451       0.00000000 NULL
P        1.91268613      -1.15681237       5.40447560       0.00000000 NULL
P        1.50678072       2.13809769       4.75545196       0.00000000 NULL
8
Lattice="5.570645091306554 -0.10382855366019988 -0.15428786914233528 -2.83822002835188 5.144160166868414 -0.5709844437925049 -0.9975192391183318 -2.7221342469317857 6.466155763400338" Properties=species:S:1:pos:R:3:initial_magmoms:R:1:castep_labels:S:1 n_minim_iter=14 pbc="T T T"
P        0.58289705       4.72942165      -0.58841663       0.00000000 NULL
P        1.44999407      -0.89976107       2.23942448       0.00000000 NULL
P        4.08084894      -1.56703841       3.49732452       0.00000000 NULL
P       -1.49806696       0.76327446       3.51043381       0.00000000 NULL
P        0.37890487      -0.47764290       3.98343579       0.00000000 NULL
P        1.89625053       3.22723502       0.68361683       0.00000000 NULL
P        1.88861284      -1.20563973       5.40078725       0.00000000 NULL
P        1.46249996       2.07014016       4.72099485       0.00000000 NULL
8
Lattice="5.558933441366642 -0.14115526279554022 -0.1736364233027087 -2.8689992453371933 5.13823577410271 -0.6038370434777658 -1.0059293093229702 -2.7609129801309398 6.483647213399907" Properties=species:S:1:pos:R:3:initial_magmoms:R:1:castep_labels:S:1 n_minim_iter=15 pbc="T T T"
P        0.54730784       4.69998663      -0.63446603       0.00000000 NULL
P        1.43237010      -0.92630324       2.22715625       0.00000000 NULL
P        4.05194394      -1.62648389       3.49188781       0.00000000 NULL
P       -1.51760215       0.73897897       3.50587003       0.00000000 NULL
P        0.36459060      -0.50541025       3.98158026       0.00000000 NULL
P        1.87898666       3.17939041       0.65022728       0.00000000 NULL
P        1.86934452      -1.25728492       5.40396764       0.00000000 NULL
P        1.42178033       1.99707179       4.69227474       0.00000000 NULL
8
Lattice="5.550516680811298 -0.1797092170783571 -0.18889488479352956 -2.9025982254779006 5.125407333424788 -0.6393950835467873 -1.0093223031953424 -2.797556800605117 6.50334456826791" Properties=species:S:1:pos:R:3:initial_magmoms:R:1:castep_labels:S:1 n_minim_iter=16 pbc="T T T"
P        0.51094534       4.66386015      -0.68148606       0.00000000 NULL
P        1.41712422      -0.95185451       2.21728487       0.00000000 NULL
P        4.02922829      -1.68632927       3.49200719       0.00000000 NULL
P       -1.53553796       0.71291160       3.50202893       0.00000000 NULL
P        0.35498381      -0.53354834       3.98149412       0.00000000 NULL
P        1.86294817       3.12556046       0.61776195       0.00000000 NULL
P        1.85505471      -1.31016666       5.41062522       0.00000000 NULL
P        1.38545702       1.91847103       4.66688544       0.00000000 NULL
8
Lattice="5.550547035981344 -0.1810627570742841 -0.1893049735765877 -2.903937881932895 5.1249491561562 -0.6406589024419609 -1.0093353301910788 -2.7987818410044887 6.504227035309858" Properties=species:S:1:pos:R:3:initial_magmoms:R:1:castep_labels:S:1 n_minim_iter=17 pbc="T T T"
P        0.50969732       4.66260764      -0.68309916       0.00000000 NULL
P        1.41673730      -0.95270927       2.21706300       0.00000000 NULL
P        4.02879182      -1.68841172       3.49224596       0.00000000 NULL
P       -1.53616416       0.71203669       3.50201728       0.00000000 NULL
P        0.35481070      -0.53449425       3.98164736       0.00000000 NULL
P        1.86251282       3.12367148       0.61672042       0.00000000 NULL
P        1.85478058      -1.31199276       5.41108218       0.00000000 NULL
P        1.38440540       1.91574214       4.66626020       0.00000000 NULL
8
Lattice="5.551059170916555 -0.20357047497515166 -0.19601937790163781 -2.9262183518303795 5.11729904584313 -0.6616935804985232 -1.0094232266858014 -2.8190997670156195 6.518911087913181" Properties=species:S:1:pos:R:3:initial_magmoms:R:1:castep_labels:S:1 n_minim_iter=18 pbc="T T T"
P        0.48894941       4.64178636      -0.70990287       0.00000000 NULL
P        1.41034000      -0.96683083       2.21340537       0.00000000 NULL
P        4.02162513      -1.72298744       3.49635617       0.00000000 NULL
P       -1.54651839       0.69749438       3.50182744       0.00000000 NULL
P        0.35200901      -0.55022041       3.98419272       0.00000000 NULL
P        1.85534662       3.09220713       0.59947136       0.00000000 NULL
P        1.85029904      -1.34236081       5.41873813       0.00000000 NULL
P        1.36703859       1.87036302       4.65597223       0.00000000 NULL
8
Lattice="5.552881275619242 -0.27254534463178737 -0.21225195120240034 -2.9946209443676026 5.087630805568546 -0.7256295050358053 -1.0043528709282268 -2.8756546062777693 6.560695932602972" Properties=species:S:1:pos:R:3:initial_magmoms:R:1:castep_labels:S:1 n_minim_iter=19 pbc="T T T"
P        0.42516986       4.57311753      -0.79003229       0.00000000 NULL
P        1.39237795      -1.00704432       2.20262663       0.00000000 NULL
P        4.00352641      -1.82596254       3.51165403       0.00000000 NULL
P       -1.57534794       0.65340911       3.50023490       0.00000000 NULL
P        0.34761186      -0.59629851       3.99095967       0.00000000 NULL
P        1.83504330       2.99158237       0.54929863       0.00000000 NULL
P        1.84024641      -1.43261917       5.44189707       0.00000000 NULL
P        1.31832095       1.73009935       4.62673135       0.00000000 NULL
8
Lattice="5.614724841905242 -0.4382417082427605 -0.24258621066534056 -3.1871731163843617 5.001076883132831 -0.8443422853704479 -0.9901642448086596 -2.9562494846451544 6.646526428105235" Properties=species:S:1:pos:R:3:initial_magmoms:R:1:castep_labels:S:1 n_minim_iter=20 pbc="T T T"
P        0.27443059       4.40120575      -0.95209664       0.00000000 NULL
P        1.36715221      -1.07756204       2.17443977       0.00000000 NULL
P        4.01164243      -2.04484928       3.55350317       0.00000000 NULL
P       -1.65398395       0.57372383       3.50638528       0.00000000 NULL
P        0.35657391      -0.67595260       4.00908000       0.00000000 NULL
P        1.81302889       2.74389196       0.45514876       0.00000000 NULL
P        1.83893112      -1.60836552       5.49681101       0.00000000 NULL
P        1.22859024       1.42271109       4.58734137       0.00000000 NULL
8
Lattice="5.759154208225563 -0.4412188864296718 -0.15859531154509698 -3.2610384266463828 5.059632446306071 -0.7836394655223883 -0.9069780617227735 -2.8483298432341733 6.681948848794648" Properties=species:S:1:pos:R:3:initial_magmoms:R:1:castep_labels:S:1 n_minim_iter=21 pbc="T T T"
P        0.27426571       4.46578836      -0.87529015       0.00000000 NULL
P        1.42596134      -1.03147592       2.19239031       0.00000000 NULL
P        4.15494181      -2.01685216       3.65492508       0.00000000 NULL
P       -1.62964630       0.67975566       3.57181512       0.00000000 NULL
P        0.46924467      -0.56948531       4.07893165       0.00000000 NULL
P        1.91568983       2.77249459       0.56669183       0.00000000 NULL
P        1.97361292      -1.48737074       5.60907692       0.00000000 NULL
P        1.35748200       1.55098189       4.75437352       0.00000000 NULL
8
Lattice="5.608361426717411 -0.4320399426846493 -0.1690039453833693 -3.1779772374749307 4.935297966462573 -0.7701064549999779 -0.9003833830993087 -2.793906718171113 6.532485563459934" Properties=species:S:1:pos:R:3:initial_magmoms:R:1:castep_labels:S:1 n_minim_iter=22 pbc="T T T"
P        0.26270437       4.35678849      -0.87333019       0.00000000 NULL
P        1.37618483      -1.01077598       2.13735550       0.00000000 NULL
P        4.03734106      -1.97846731       3.56219550       0.00000000 NULL
P       -1.59434508       0.65169286       3.49360916       0.00000000 NULL
P        0.44533871      -0.56227408       3.98028046       0.00000000 NULL
P        1.86877352       2.69557625       0.54126381       0.00000000 NULL
P        1.90434830      -1.46368558       5.47601561       0.00000000 NULL
P        1.30342673       1.49758521       4.63387193       0.00000000 NULL
8
Lattice="5.655387285753075 -0.44824772069740243 -0.18332032980053856 -3.216941836303405 4.969391002611112 -0.7624807465978284 -0.9192613190223676 -2.8005480848070454 6.577649229674739" Properties=species:S:1:pos:R:3:initial_magmoms:R:1:castep_labels:S:1 n_minim_iter=23 pbc="T T T"
P        0.24994717       4.37928812      -0.87623970       0.00000000 NULL
P        1.38347447      -1.01651127       2.14508120       0.00000000 NULL
P        4.06361131      -1.99832249       3.57731898       0.00000000 NULL
P       -1.61997025       0.66419760       3.52399283       0.00000000 NULL
P        0.43848145      -0.56016362       4.00713245       0.00000000 NULL
P        1.87668645       2.70270964       0.54483930       0.00000000 NULL
P        1.90661417      -1.46905773       5.50994752       0.00000000 NULL
P        1.29636299       1.50679684       4.66616545       0.00000000 NULL
8
Lattice="5.65979219188947 -0.45397592732346553 -0.1866265707606187 -3.2247121059826447 4.967558834097703 -0.7598014708104532 -0.9219097376490002 -2.7965934857794994 6.571683395149152" Properties=species:S:1:pos:R:3:initial_magmoms:R:1:castep_labels:S:1 n_minim_iter=24 pbc="T T T"
P        0.24257861       4.37460726      -0.87792043       0.00000000 NULL
P        1.38225921      -1.01593220       2.14007708       0.00000000 NULL
P        4.06508052      -2.00279402       3.57211505       0.00000000 NULL
P       -1.62395315       0.66590705       3.52317578       0.00000000 NULL
P        0.43686034      -0.55784330       4.00227597       0.00000000 NULL
P        1.87758011       2.69412453       0.54363121       0.00000000 NULL
P        1.90423609      -1.46790808       5.50448403       0.00000000 NULL
P        1.29171650       1.50337134       4.66132102       0.00000000 NULL
8
Lattice="5.679704804220742 -0.4709457222895055 -0.19303959978030974 -3.2511030259446025 4.968475655028983 -0.7515392036375076 -0.9266095159112219 -2.7847567763670917 6.557754262859642" Properties=species:S:1:pos:R:3:initial_magmoms:R:1:castep_labels:S:1 n_minim_iter=25 pbc="T T T"
P        0.22059362       4.36662789      -0.88153561       0.00000000 NULL
P        1.38165362      -1.01365398       2.12702761       0.00000000 NULL
P        4.07668610      -2.01688474       3.56183461       0.00000000 NULL
P       -1.63464180       0.67443220       3.52390906       0.00000000 NULL
P        0.43598685      -0.54846874       3.99125522       0.00000000 NULL
P        1.88455847       2.67180373       0.54380742       0.00000000 NULL
P        1.90312926      -1.46208892       5.49414293       0.00000000 NULL
P        1.28328708       1.49893227       4.65357113       0.00000000 NULL
