13
Lattice="3.23504 1.4150705431906764e-16 -1.7957331960591143e-15 -1.1380043113739107 8.268605873410248 2.1466448188594484e-15 -1.3643066458834852 -2.708011030487823 10.958287404569864" Properties=species:S:1:pos:R:3:initial_magmoms:R:1:castep_labels:S:1 n_minim_iter=1 pbc="T T T"
P        1.48775590       7.12641718       1.93534643       0.00000000 NULL
P        0.27066266       1.93554312       9.03630023       0.00000000 NULL
P       -1.08905759       2.51230966       4.81171825       0.00000000 NULL
P        1.06854343       0.44378029       1.75414128       0.00000000 NULL
P        0.06107677       5.41302269       3.82775609       0.00000000 NULL
P        1.29114755       6.18321757       6.51162149       0.00000000 NULL
P       -0.58748780       1.37570703       2.85977878       0.00000000 NULL
P        0.62204866      -0.70613575       6.88134534       0.00000000 NULL
P        1.02792378       2.45972148       2.30704386       0.00000000 NULL
P       -0.43001904       3.51552634       3.20305043       0.00000000 NULL
P       -1.55685153       6.42955545       4.46364688       0.00000000 NULL
P       -0.86719372       3.50551479       9.67492620       0.00000000 NULL
P        1.68575774       5.21398955       2.58071065       0.00000000 NULL
13
Lattice="3.2453383127892543 0.00045013316379800014 2.9393348593172616e-05 -1.1404764757465478 8.302355821644012 0.003800334094688959 -1.3689269663094623 -2.714255763145821 10.980355647519005" Properties=species:S:1:pos:R:3:initial_magmoms:R:1:castep_labels:S:1 n_minim_iter=2 pbc="T T T"
P        1.49355364       7.15692913       1.94255416       0.00000000 NULL
P        0.27206878       1.94775178       9.05646561       0.00000000 NULL
P       -1.09218877       2.52457676       4.82334625       0.00000000 NULL
P        1.07195427       0.44628271       1.75788475       0.00000000 NULL
P        0.06221627       5.43690501       3.83863938       0.00000000 NULL
P        1.29598820       6.21158718       6.52853864       0.00000000 NULL
P       -0.58919051       1.38215092       2.86680307       0.00000000 NULL
P        0.62418818      -0.70564408       6.89566773       0.00000000 NULL
P        1.03173867       2.47133657       2.31281004       0.00000000 NULL
P       -0.43095096       3.53146551       3.21149944       0.00000000 NULL
P       -1.56084120       6.45829992       4.47629408       0.00000000 NULL
P       -0.86957983       3.52415902       9.69711241       0.00000000 NULL
P        1.69171222       5.23657749       2.58813097       0.00000000 NULL
13
Lattice="3.4147094596997345 0.008137257734865904 0.000538457347891944 -1.180408993436747 8.869006964431959 0.06722109601004886 -1.4450659104555796 -2.8196762982878174 11.34653895816518" Properties=species:S:1:pos:R:3:initial_magmoms:R:1:castep_labels:S:1 n_minim_iter=3 pbc="T T T"
P        1.58964813       7.66942493       2.06241336       0.00000000 NULL
P        0.29564790       2.15267292       9.39140842       0.00000000 NULL
P       -1.14346735       2.73024248       5.01647967       0.00000000 NULL
P        1.12805669       0.48804199       1.81994100       0.00000000 NULL
P        0.08155902       5.83762284       4.01963851       0.00000000 NULL
P        1.37604962       6.68769083       6.80973783       0.00000000 NULL
P       -0.61713599       1.48989779       2.98356359       0.00000000 NULL
P        0.65953951      -0.69773586       7.13331319       0.00000000 NULL
P        1.09486785       2.66643005       2.40849945       0.00000000 NULL
P       -0.44600150       3.79896602       3.35198404       0.00000000 NULL
P       -1.62578889       6.94127752       4.68665456       0.00000000 NULL
P       -0.90866399       3.83641024      10.06541931       0.00000000 NULL
P        1.78991868       5.61554874       2.71122610       0.00000000 NULL
13
Lattice="3.491421416556365 0.009831906840934226 0.0072837632902453065 -1.2030628561664094 9.232988696870411 0.1132018326953403 -1.4559871849629082 -2.8757096934888198 11.547292409390888" Properties=species:S:1:pos:R:3:initial_magmoms:R:1:castep_labels:S:1 n_minim_iter=4 pbc="T T T"
P        1.63408825       7.99918383       2.14295390       0.00000000 NULL
P        0.32460110       2.29758945       9.58680706       0.00000000 NULL
P       -1.15821085       2.86725131       5.12652656       0.00000000 NULL
P        1.15629410       0.51245605       1.85739670       0.00000000 NULL
P        0.09627045       6.09797320       4.13217555       0.00000000 NULL
P        1.42136856       6.99983851       6.98211447       0.00000000 NULL
P       -0.62518558       1.55922627       3.05333972       0.00000000 NULL
P        0.69089416      -0.69046176       7.26627541       0.00000000 NULL
P        1.12721516       2.79224346       2.46628427       0.00000000 NULL
P       -0.44864018       3.97422083       3.43848946       0.00000000 NULL
P       -1.65018769       7.26061400       4.81410191       0.00000000 NULL
P       -0.91011388       4.04078125      10.27583756       0.00000000 NULL
P        1.83517552       5.85924464       2.78815285       0.00000000 NULL
13
Lattice="3.532133073786123 0.016291186985595535 0.03148562872643606 -1.2008745678325652 9.58685183355116 0.15087113469803545 -1.3965826611325136 -2.933864252937423 11.694419230806547" Properties=species:S:1:pos:R:3:initial_magmoms:R:1:castep_labels:S:1 n_minim_iter=5 pbc="T T T"
P        1.68354883       8.32489184       2.22123209       0.00000000 NULL
P        0.40158924       2.44675674       9.74728676       0.00000000 NULL
P       -1.13010967       2.99826419       5.20660078       0.00000000 NULL
P        1.18221640       0.53281197       1.89245134       0.00000000 NULL
P        0.13951162       6.35060149       4.22926966       0.00000000 NULL
P        1.49684433       7.31131170       7.13301199       0.00000000 NULL
P       -0.60949746       1.62235885       3.11094363       0.00000000 NULL
P        0.75214649      -0.68964063       7.37105717       0.00000000 NULL
P        1.16399089       2.91724062       2.51673840       0.00000000 NULL
P       -0.42435508       4.14545825       3.51120029       0.00000000 NULL
P       -1.62455521       7.57610662       4.91483059       0.00000000 NULL
P       -0.84398708       4.22976730      10.43667980       0.00000000 NULL
P        1.88217495       6.10022370       2.85696059       0.00000000 NULL
13
Lattice="3.4920216363995134 0.021774249699862594 0.05672928080802029 -1.1727499470412286 9.677764503844005 0.13894175521495739 -1.2987466835426387 -2.9706238869440584 11.69560411596203" Properties=species:S:1:pos:R:3:initial_magmoms:R:1:castep_labels:S:1 n_minim_iter=6 pbc="T T T"
P        1.69406459       8.41096575       2.23068576       0.00000000 NULL
P        0.47233267       2.48172627       9.76332774       0.00000000 NULL
P       -1.07333813       3.02110511       5.19801902       0.00000000 NULL
P        1.18202381       0.52857654       1.90050238       0.00000000 NULL
P        0.17970090       6.40699785       4.23672584       0.00000000 NULL
P        1.54149360       7.39068387       7.15045989       0.00000000 NULL
P       -0.57841014       1.62803583       3.11738016       0.00000000 NULL
P        0.79917678      -0.71099817       7.37863532       0.00000000 NULL
P        1.17420344       2.94899069       2.52032064       0.00000000 NULL
P       -0.38961055       4.18584641       3.51542236       0.00000000 NULL
P       -1.56100164       7.65763981       4.90966717       0.00000000 NULL
P       -0.75215526       4.24829125      10.43340012       0.00000000 NULL
P        1.88799871       6.16113045       2.85941679       0.00000000 NULL
13
Lattice="3.384550113880253 0.021206355855153982 0.09995603549151956 -1.1363957240340856 9.915292054853618 0.116855013200689 -1.10652242152409 -3.0572293407644344 11.747829477439124" Properties=species:S:1:pos:R:3:initial_magmoms:R:1:castep_labels:S:1 n_minim_iter=7 pbc="T T T"
P        1.67368129       8.62498789       2.25317502       0.00000000 NULL
P        0.58703807       2.57059287       9.83544406       0.00000000 NULL
P       -0.97028129       3.08383614       5.20273087       0.00000000 NULL
P        1.16642074       0.51062406       1.92043591       0.00000000 NULL
P        0.23175650       6.55074904       4.27079397       0.00000000 NULL
P        1.58249010       7.58821745       7.21116946       0.00000000 NULL
P       -0.52247486       1.64621761       3.14838686       0.00000000 NULL
P        0.87614218      -0.76725298       7.42021365       0.00000000 NULL
P        1.17227760       3.02661469       2.53142554       0.00000000 NULL
P       -0.33748560       4.29267430       3.53991308       0.00000000 NULL
P       -1.45463730       7.87410673       4.92259269       0.00000000 NULL
P       -0.59795420       4.30086184      10.46760744       0.00000000 NULL
P        1.86207606       6.30975412       2.86464113       0.00000000 NULL
13
Lattice="3.2590448305566437 -0.01925000098391776 0.09534790140061723 -1.195650668719115 10.15515044271516 0.11212993806461605 -1.0353373063667688 -3.1224721418971195 11.860823274245634" Properties=species:S:1:pos:R:3:initial_magmoms:R:1:castep_labels:S:1 n_minim_iter=8 pbc="T T T"
P        1.52835388       8.81460633       2.26114594       0.00000000 NULL
P        0.54905067       2.65820592       9.93847269       0.00000000 NULL
P       -0.96302070       3.15335026       5.24255039       0.00000000 NULL
P        1.11462638       0.46806466       1.93053480       0.00000000 NULL
P        0.15696048       6.68546493       4.32238272       0.00000000 NULL
P        1.44092660       7.76182115       7.27653715       0.00000000 NULL
P       -0.52200305       1.67157122       3.20183981       0.00000000 NULL
P        0.85907639      -0.83025751       7.47918623       0.00000000 NULL
P        1.10081283       3.09130520       2.53427077       0.00000000 NULL
P       -0.37735124       4.40235029       3.58165984       0.00000000 NULL
P       -1.48681914       8.10492034       4.97450060       0.00000000 NULL
P       -0.63140573       4.35546114      10.55017072       0.00000000 NULL
P        1.73095495       6.43092711       2.85131442       0.00000000 NULL
13
Lattice="3.109798520800365 -0.06743279848706998 0.06847829413873623 -1.2663025365391767 10.542005990984936 0.14979047844983623 -1.0230801470831807 -3.1859138588778793 11.912773946335593" Properties=species:S:1:pos:R:3:initial_magmoms:R:1:castep_labels:S:1 n_minim_iter=9 pbc="T T T"
P        1.34052955       9.15250136       2.27594500       0.00000000 NULL
P        0.46133853       2.85360168      10.01148412       0.00000000 NULL
P       -0.98253644       3.28115009       5.26909279       0.00000000 NULL
P        1.04434266       0.39314298       1.92226967       0.00000000 NULL
P        0.03737245       6.92967082       4.38708641       0.00000000 NULL
P        1.21856643       8.07161750       7.32005595       0.00000000 NULL
P       -0.54113197       1.72989191       3.26729904       0.00000000 NULL
P        0.80551109      -0.88576070       7.49279653       0.00000000 NULL
P        1.00212430       3.22154346       2.51986374       0.00000000 NULL
P       -0.45447128       4.58743121       3.62581985       0.00000000 NULL
P       -1.55496425       8.49744088       5.04745837       0.00000000 NULL
P       -0.75242864       4.47712416      10.59130304       0.00000000 NULL
P        1.56483951       6.64954709       2.81650578       0.00000000 NULL
13
Lattice="3.241578212191871 -0.07312314422653396 0.08926445461693527 -1.327203509373556 10.881809982411495 0.1731239939919432 -1.0034815236258356 -3.2535318680207888 11.80021764486102" Properties=species:S:1:pos:R:3:initial_magmoms:R:1:castep_labels:S:1 n_minim_iter=10 pbc="T T T"
P        1.39923527       9.48484679       2.29210487       0.00000000 NULL
P        0.56519068       3.01273293       9.95926437       0.00000000 NULL
P       -0.99154905       3.38481940       5.22316601       0.00000000 NULL
P        1.10076835       0.34363484       1.90975275       0.00000000 NULL
P        0.05161525       7.16735559       4.39111878       0.00000000 NULL
P        1.28292698       8.35137062       7.29251999       0.00000000 NULL
P       -0.55132372       1.79676191       3.27582441       0.00000000 NULL
P        0.90136633      -0.90202003       7.43380776       0.00000000 NULL
P        1.05660992       3.34961956       2.50209680       0.00000000 NULL
P       -0.47204480       4.73476003       3.60810155       0.00000000 NULL
P       -1.60447256       8.82503730       5.02917284       0.00000000 NULL
P       -0.76962464       4.61226061      10.50551255       0.00000000 NULL
P        1.64662677       6.86937014       2.79998268       0.00000000 NULL
13
Lattice="3.160988730663241 -0.0772225994894634 0.08358886206897312 -1.3093322009612576 10.60904745894715 0.10808475067577727 -0.9852884376123633 -3.2508413217262366 11.649496485150392" Properties=species:S:1:pos:R:3:initial_magmoms:R:1:castep_labels:S:1 n_minim_iter=11 pbc="T T T"
P        1.34883817       9.23487258       2.20040071       0.00000000 NULL
P        0.54294609       2.87826478       9.79944330       0.00000000 NULL
P       -0.97519540       3.26140811       5.12588424       0.00000000 NULL
P        1.07167770       0.30887310       1.87843979       0.00000000 NULL
P        0.03578399       6.95958154       4.28551141       0.00000000 NULL
P        1.23100760       8.09598726       7.13594894       0.00000000 NULL
P       -0.54359164       1.73509836       3.22306940       0.00000000 NULL
P        0.87545728      -0.93939707       7.32808909       0.00000000 NULL
P        1.02397475       3.24728892       2.44414675       0.00000000 NULL
P       -0.47242142       4.58906788       3.52727498       0.00000000 NULL
P       -1.58241637       8.57318733       4.90540983       0.00000000 NULL
P       -0.77220944       4.41536593      10.32403615       0.00000000 NULL
P        1.59459174       6.67613896       2.71527897       0.00000000 NULL
13
Lattice="3.1820656935755487 -0.08019507729488695 0.08035609953185262 -1.3243440469060832 10.666745397822185 0.10714683233534442 -1.0026395302986442 -3.2708917985876567 11.666146858873233" Properties=species:S:1:pos:R:3:initial_magmoms:R:1:castep_labels:S:1 n_minim_iter=12 pbc="T T T"
P        1.34957000       9.28573064       2.19905303       0.00000000 NULL
P        0.53951884       2.89356568       9.81221824       0.00000000 NULL
P       -0.98828247       3.27450534       5.13287453       0.00000000 NULL
P        1.07732140       0.30109735       1.87895119       0.00000000 NULL
P        0.02672239       6.99661233       4.29083282       0.00000000 NULL
P        1.22506129       8.13708961       7.14291321       0.00000000 NULL
P       -0.55210290       1.74553575       3.23158078       0.00000000 NULL
P        0.87620455      -0.94909217       7.33627389       0.00000000 NULL
P        1.02676502       3.26455463       2.44361186       0.00000000 NULL
P       -0.48385369       4.61276853       3.53013337       0.00000000 NULL
P       -1.60358607       8.62313756       4.91077633       0.00000000 NULL
P       -0.79635122       4.43345557      10.33633792       0.00000000 NULL
P        1.59937127       6.71012898       2.71277504       0.00000000 NULL
13
Lattice="3.1893909755419 -0.0813321290376241 0.07725453733305626 -1.3298271429970492 10.676593840039468 0.09896526708773126 -1.0152831427997737 -3.2857955800167735 11.650021692334523" Properties=species:S:1:pos:R:3:initial_magmoms:R:1:castep_labels:S:1 n_minim_iter=13 pbc="T T T"
P        1.34795455       9.29517909       2.18540077       0.00000000 NULL
P        0.53643133       2.89038341       9.79438123       0.00000000 NULL
P       -0.99507097       3.26843980       5.12176721       0.00000000 NULL
P        1.07883251       0.28995640       1.87384846       0.00000000 NULL
P        0.02053339       6.99994136       4.27876364       0.00000000 NULL
P        1.21752815       8.13839961       7.12352904       0.00000000 NULL
P       -0.55727032       1.74647706       3.22976456       0.00000000 NULL
P        0.87403980      -0.96073809       7.32306974       0.00000000 NULL
P        1.02674977       3.26592941       2.43398275       0.00000000 NULL
P       -0.49137937       4.61261429       3.51950321       0.00000000 NULL
P       -1.61419451       8.63043904       4.89583333       0.00000000 NULL
P       -0.81444197       4.42233892      10.31463843       0.00000000 NULL
P        1.60006545       6.71345375       2.69827231       0.00000000 NULL
13
Lattice="3.216655715945984 -0.08123423771116271 0.06365710105709045 -1.33916797567034 10.716854548233636 0.06315099648335915 -1.072922977856149 -3.352837127473061 11.531799613178304" Properties=species:S:1:pos:R:3:initial_magmoms:R:1:castep_labels:S:1 n_minim_iter=14 pbc="T T T"
P        1.34915247       9.34098025       2.11679749       0.00000000 NULL
P        0.53088837       2.88131265       9.67799101       0.00000000 NULL
P       -1.01813488       3.23612160       5.05155012       0.00000000 NULL
P        1.08538497       0.23390564       1.84362715       0.00000000 NULL
P        0.00128822       7.01599877       4.20940812       0.00000000 NULL
P        1.19076665       8.14714997       7.01126957       0.00000000 NULL
P       -0.57769647       1.75328411       3.21296003       0.00000000 NULL
P        0.86465680      -1.01326053       7.23482917       0.00000000 NULL
P        1.02977027       3.27397283       2.38106248       0.00000000 NULL
P       -0.52027941       4.60955587       3.45805853       0.00000000 NULL
P       -1.64829259       8.66290005       4.81004156       0.00000000 NULL
P       -0.89227781       4.36744907      10.17748807       0.00000000 NULL
P        1.60952784       6.73097943       2.62259354       0.00000000 NULL
13
Lattice="3.243687024967099 -0.038497637270776666 0.05709433541790752 -1.2394442136139674 10.974279173120143 0.13905981443898563 -1.1423276380722718 -3.3625503336802396 11.204023727989025" Properties=species:S:1:pos:R:3:initial_magmoms:R:1:castep_labels:S:1 n_minim_iter=15 pbc="T T T"
P        1.44641015       9.64231446       2.11946153       0.00000000 NULL
P        0.59746355       3.08280887       9.45690856       0.00000000 NULL
P       -0.99235438       3.30531745       4.93629416       0.00000000 NULL
P        1.10361981       0.17646671       1.78723979       0.00000000 NULL
P        0.06078584       7.25281481       4.15514170       0.00000000 NULL
P        1.25519320       8.44467495       6.89619291       0.00000000 NULL
P       -0.57802806       1.85810031       3.18798418       0.00000000 NULL
P        0.86859907      -0.99585624       7.02731259       0.00000000 NULL
P        1.07520059       3.39684693       2.32610309       0.00000000 NULL
P       -0.50810493       4.73827570       3.38932676       0.00000000 NULL
P       -1.58649109       8.94396274       4.73683621       0.00000000 NULL
P       -0.92951379       4.50798359       9.93545702       0.00000000 NULL
P        1.69536732       6.95501653       2.57796876       0.00000000 NULL
13
Lattice="3.166634752237748 -0.11220315511504966 0.007478156969768746 -1.4007269362952157 10.868940647487804 0.14512300546161508 -1.216203095641865 -3.3035720019239783 11.105422775634354" Properties=species:S:1:pos:R:3:initial_magmoms:R:1:castep_labels:S:1 n_minim_iter=16 pbc="T T T"
P        1.22345596       9.49174085       2.06139357       0.00000000 NULL
P        0.41807218       3.04896513       9.35116364       0.00000000 NULL
P       -1.09053213       3.25874352       4.89824587       0.00000000 NULL
P        1.04691221       0.10250476       1.74697954       0.00000000 NULL
P       -0.12498506       7.18478490       4.10474962       0.00000000 NULL
P        0.98631646       8.32309617       6.81523528       0.00000000 NULL
P       -0.64662489       1.88619393       3.18223576       0.00000000 NULL
P        0.76549001      -1.03100343       6.93318826       0.00000000 NULL
P        0.96591422       3.32251902       2.27857032       0.00000000 NULL
P       -0.64079617       4.68928456       3.34553812       0.00000000 NULL
P       -1.77487192       8.88312746       4.68356715       0.00000000 NULL
P       -1.14755417       4.44560177       9.83945579       0.00000000 NULL
P        1.50382730       6.83186540       2.51043354       0.00000000 NULL
13
Lattice="3.2715668266124744 -0.06176345553210338 0.022525271432719405 -1.308717921511853 11.119112349272738 0.20642963181365798 -1.2517081232107368 -3.324323442252024 11.176834684197674" Properties=species:S:1:pos:R:3:initial_magmoms:R:1:castep_labels:S:1 n_minim_iter=17 pbc="T T T"
P        1.39258291       9.76109313       2.14374278       0.00000000 NULL
P        0.50962433       3.19964612       9.45373934       0.00000000 NULL
P       -1.06406105       3.35703841       4.95875150       0.00000000 NULL
P        1.09282288       0.13447820       1.76688465       0.00000000 NULL
P       -0.02017632       7.39530279       4.18531489       0.00000000 NULL
P        1.15255112       8.59503333       6.93305099       0.00000000 NULL
P       -0.63146417       1.94685503       3.22084046       0.00000000 NULL
P        0.81031367      -0.98885313       6.99187485       0.00000000 NULL
P        1.05085753       3.43816181       2.32160798       0.00000000 NULL
P       -0.58956749       4.82258098       3.39982535       0.00000000 NULL
P       -1.70127287       9.11525541       4.76934556       0.00000000 NULL
P       -1.08624936       4.61358145       9.94936680       0.00000000 NULL
P        1.65181922       7.04711606       2.57982099       0.00000000 NULL
13
Lattice="3.2425526304376815 -0.048495764630704506 0.026684538293888053 -1.2645998929088533 11.055908025223632 0.20558783871535444 -1.2364892545064448 -3.309924157005 11.099779909987998" Properties=species:S:1:pos:R:3:initial_magmoms:R:1:castep_labels:S:1 n_minim_iter=18 pbc="T T T"
P        1.41148169       9.71601798       2.13301547       0.00000000 NULL
P        0.52657236       3.18914070       9.39248665       0.00000000 NULL
P       -1.03809926       3.33457555       4.92445967       0.00000000 NULL
P        1.08593170       0.13448787       1.75640310       0.00000000 NULL
P        0.00689232       7.36017148       4.15859065       0.00000000 NULL
P        1.17594521       8.55762457       6.89104753       0.00000000 NULL
P       -0.61681282       1.93849286       3.20049633       0.00000000 NULL
P        0.80942066      -0.98132038       6.94529387       0.00000000 NULL
P        1.05509487       3.42413518       2.30844285       0.00000000 NULL
P       -0.56752246       4.79459329       3.37654766       0.00000000 NULL
P       -1.65428482       9.06229563       4.73582888       0.00000000 NULL
P       -1.05136710       4.58462679       9.88242368       0.00000000 NULL
P        1.66093799       7.01772023       2.56624435       0.00000000 NULL
