8
Lattice="6.300361139698661 0.0 0.0 0.0 5.121685737464857 0.0 0.0 0.0 5.121685737464857" Properties=species:S:1:pos:R:3:initial_magmoms:R:1:castep_labels:S:1:forces:R:3 n_minim_iter=1 energy=-41.321451669592 stress="0.0010033946191561778 0.0 -0.0 0.0 0.0048699400544403885 -0.0 -0.0 -0.0 0.0048699400544403885" free_energy=-41.321451669592 pbc="T T T"
P        4.00693929       4.09529996       4.81287565       0.00000000 NULL       0.02096400      -0.10244300      -0.06428000
P        4.00693929       1.02638577       0.30881009       0.00000000 NULL       0.02096400       0.10244300       0.06428000
P        0.85675872       4.81287565       1.02638577       0.00000000 NULL       0.02096400      -0.06428000       0.10244300
P        0.85675872       0.30881009       4.09529996       0.00000000 NULL       0.02096400       0.06428000      -0.10244300
P        5.67297306       2.06203027       4.09937961       0.00000000 NULL      -0.02096400       0.00764200       0.14398200
P        5.67297306       3.05965547       1.02230612       0.00000000 NULL      -0.02096400      -0.00764200      -0.14398200
P        2.52279249       4.09937961       3.05965547       0.00000000 NULL      -0.02096400       0.14398300      -0.00764200
P        2.52279249       1.02230612       2.06203027       0.00000000 NULL      -0.02096400      -0.14398300       0.00764200
8
Lattice="6.295059844035386 0.0 0.0 0.0 5.10080348849847 0.0 0.0 0.0 5.10080348849847" Properties=species:S:1:pos:R:3:initial_magmoms:R:1:castep_labels:S:1:forces:R:3 n_minim_iter=2 energy=-41.325495762738 stress="-0.0014200230393938155 -0.0 -0.0 -0.0 0.00010330548553849583 0.0 -0.0 0.0 0.00010330548553849583" free_energy=-41.325495762738 pbc="T T T"
P        4.00367407       4.07808462       4.79292752       0.00000000 NULL       0.01770800      -0.18247300      -0.08683100
P        4.00367407       1.02271887       0.30787597       0.00000000 NULL       0.01770800       0.18247300       0.08683100
P        0.85614415       4.79292752       1.02271887       0.00000000 NULL       0.01770700      -0.08683100       0.18247300
P        0.85614415       0.30787597       4.07808462       0.00000000 NULL       0.01770700       0.08683100      -0.18247300
P        5.66809333       2.05366155       4.08339343       0.00000000 NULL      -0.01770700       0.02453300       0.05500900
P        5.66809333       3.04714194       1.01741005       0.00000000 NULL      -0.01770700      -0.02453300      -0.05500900
P        2.52056341       4.08339343       3.04714194       0.00000000 NULL      -0.01770700       0.05500900      -0.02453300
P        2.52056341       1.01741005       2.05366155       0.00000000 NULL      -0.01770700      -0.05500900       0.02453300
8
Lattice="6.365127529751502 0.0 0.0 0.0 5.078972322227846 0.0 0.0 0.0 5.078972322227846" Properties=species:S:1:pos:R:3:initial_magmoms:R:1:castep_labels:S:1:forces:R:3 n_minim_iter=3 energy=-41.331653239026 stress="0.0008152523172586912 -0.0 0.0 -0.0 0.0003204125534960387 0.0 0.0 0.0 0.00032035165014049875" free_energy=-41.331653239026 pbc="T T T"
P        4.04923267       4.05107259       4.76780010       0.00000000 NULL       0.01703100      -0.01849600      -0.04197900
P        4.04923267       1.02789974       0.31117222       0.00000000 NULL       0.01703100       0.01849600       0.04197900
P        0.86666890       4.76780010       1.02789974       0.00000000 NULL       0.01703000      -0.04197900       0.01849600
P        0.86666890       0.31117222       4.05107259       0.00000000 NULL       0.01703000       0.04197900      -0.01849600
P        5.73018717       2.04613111       4.06927644       0.00000000 NULL      -0.01703000       0.00311500      -0.04420700
P        5.73018717       3.03284121       1.00969588       0.00000000 NULL      -0.01703000      -0.00311500       0.04420700
P        2.54762341       4.06927644       3.03284121       0.00000000 NULL      -0.01703100      -0.04420800      -0.00311500
P        2.54762341       1.00969588       2.04613111       0.00000000 NULL      -0.01703100       0.04420800       0.00311500
8
Lattice="6.342446467969163 0.0 0.0 0.0 5.077886053102465 0.0 0.0 0.0 5.077886053102465" Properties=species:S:1:pos:R:3:initial_magmoms:R:1:castep_labels:S:1:forces:R:3 n_minim_iter=4 energy=-41.332480418872 stress="-0.0005051378956025384 -0.0 0.0 -0.0 0.00044074978229065456 -0.0 0.0 -0.0 0.00044074978229065456" free_energy=-41.332480418872 pbc="T T T"
P        4.03575998       4.04778765       4.76409838       0.00000000 NULL       0.02178600       0.03608400      -0.01102800
P        4.03575998       1.03009840       0.31378767       0.00000000 NULL       0.02178600      -0.03608400       0.01102800
P        0.86453675       4.76409838       1.03009840       0.00000000 NULL       0.02178700      -0.01102800      -0.03608400
P        0.86453675       0.31378767       4.04778765       0.00000000 NULL       0.02178700       0.01102800       0.03608400
P        5.70881255       2.04606749       4.06641649       0.00000000 NULL      -0.02178700       0.03207400      -0.04010300
P        5.70881255       3.03181856       1.01146956       0.00000000 NULL      -0.02178700      -0.03207400       0.04010300
P        2.53758931       4.06641649       3.03181856       0.00000000 NULL      -0.02178600      -0.04010300      -0.03207300
P        2.53758931       1.01146956       2.04606749       0.00000000 NULL      -0.02178600       0.04010300       0.03207300
8
Lattice="6.363108625781501 0.0 0.0 0.0 5.056265063342402 0.0 0.0 0.0 5.056265063342402" Properties=species:S:1:pos:R:3:initial_magmoms:R:1:castep_labels:S:1:forces:R:3 n_minim_iter=5 energy=-41.33459092679 stress="7.702328791715148e-05 -0.0 0.0 -0.0 -6.706496976664986e-05 0.0 0.0 0.0 -6.71264408663443e-05" free_energy=-41.33459092679 pbc="T T T"
P        4.05394631       4.02849425       4.73577349       0.00000000 NULL       0.01644500       0.00646500      -0.00226300
P        4.05394631       1.02777082       0.32049158       0.00000000 NULL       0.01644500      -0.00646500       0.00226300
P        0.87239199       4.73577349       1.02777082       0.00000000 NULL       0.01644400      -0.00226300      -0.00646500
P        0.87239199       0.32049158       4.02849425       0.00000000 NULL       0.01644400       0.00226300       0.00646500
P        5.72237170       2.04215612       4.03877659       0.00000000 NULL      -0.01644400       0.03341200       0.02680500
P        5.72237170       3.01410894       1.01748847       0.00000000 NULL      -0.01644400      -0.03341200      -0.02680500
P        2.54081739       4.03877659       3.01410894       0.00000000 NULL      -0.01644500       0.02680500      -0.03341200
P        2.54081739       1.01748847       2.04215612       0.00000000 NULL      -0.01644500      -0.02680500       0.03341200
8
Lattice="6.342410836664586 0.0 0.0 0.0 5.058113322144033 0.0 0.0 0.0 5.058113322144033" Properties=species:S:1:pos:R:3:initial_magmoms:R:1:castep_labels:S:1:forces:R:3 n_minim_iter=6 energy=-41.335534720079 stress="-0.0002742385945194609 0.0 0.0 0.0 -0.0002490949211343058 0.0 0.0 0.0 -0.0002490949211343058" free_energy=-41.335534720079 pbc="T T T"
P        4.04619925       4.03035136       4.73337060       0.00000000 NULL       0.00177200       0.00239300      -0.00976200
P        4.04619925       1.02776196       0.32474272       0.00000000 NULL       0.00177200      -0.00239300       0.00976200
P        0.87499383       4.73337060       1.02776196       0.00000000 NULL       0.00177100      -0.00976200      -0.00239300
P        0.87499383       0.32474272       4.03035136       0.00000000 NULL       0.00177100       0.00976200       0.00239300
P        5.69831855       2.05106966       4.04023862       0.00000000 NULL      -0.00177100      -0.00401300       0.00066800
P        5.69831855       3.00704366       1.01787471       0.00000000 NULL      -0.00177100       0.00401300      -0.00066800
P        2.52711313       4.04023862       3.00704366       0.00000000 NULL      -0.00177200       0.00066800       0.00401300
P        2.52711313       1.01787471       2.05106966       0.00000000 NULL      -0.00177200      -0.00066800      -0.00401300
8
Lattice="6.347757142333319 0.0 0.0 0.0 5.061739223416945 0.0 0.0 0.0 5.061739223416945" Properties=species:S:1:pos:R:3:initial_magmoms:R:1:castep_labels:S:1:forces:R:3 n_minim_iter=7 energy=-41.335725873103 stress="-4.740613942784353e-05 0.0 -0.0 0.0 1.3219610865092554e-05 -0.0 -0.0 -0.0 1.3219610865092554e-05" free_energy=-41.335725873103 pbc="T T T"
P        4.05149034       4.03605497       4.73153250       0.00000000 NULL       0.00306700      -0.00024900       0.00266800
P        4.05149034       1.02568425       0.33020672       0.00000000 NULL       0.00306700       0.00024900      -0.00266800
P        0.87761177       4.73153250       1.02568425       0.00000000 NULL       0.00306800       0.00266800       0.00024900
P        0.87761177       0.33020672       4.03605497       0.00000000 NULL       0.00306800      -0.00266800      -0.00024900
P        5.70124154       2.05099820       4.04513141       0.00000000 NULL      -0.00306700      -0.00225900      -0.00065800
P        5.70124154       3.01074103       1.01660781       0.00000000 NULL      -0.00306700       0.00225800       0.00065800
P        2.52736297       4.04513141       3.01074103       0.00000000 NULL      -0.00306700      -0.00065800       0.00225900
P        2.52736297       1.01660781       2.05099820       0.00000000 NULL      -0.00306700       0.00065800      -0.00225900
