16
Lattice="4.88788 0.0 0.0 0.0 6.283659999999999 1.7299646168492325e-15 0.0 -2.9926625805164724 11.571217718186638" Properties=species:S:1:pos:R:3:initial_magmoms:R:1:castep_labels:S:1 n_minim_iter=1 pbc="T T T"
P        4.23118599      -1.57778512      10.55465963       0.00000000 NULL
P        4.23118599       1.72695254       1.01655809       0.00000000 NULL
P        0.65669401       4.86878254       1.01655809       0.00000000 NULL
P        0.65669401       1.56404488      10.55465963       0.00000000 NULL
P        4.01924116       3.41702601       2.12300256       0.00000000 NULL
P        4.01924116       3.01580141       9.44821516       0.00000000 NULL
P        0.86863884      -0.12602859       9.44821516       0.00000000 NULL
P        0.86863884       0.27519601       2.12300256       0.00000000 NULL
P        2.66726626       1.83643104      10.36408630       0.00000000 NULL
P        2.66726626       4.59639638       1.20713142       0.00000000 NULL
P        2.22061374       1.45456638       1.20713142       0.00000000 NULL
P        2.22061374      -1.30539896      10.36408630       0.00000000 NULL
P        3.40276560       4.44281183       3.72747223       0.00000000 NULL
P        3.40276560       1.99001559       7.84374549       0.00000000 NULL
P        1.48511440      -1.15181441       7.84374549       0.00000000 NULL
P        1.48511440       1.30098183       3.72747223       0.00000000 NULL
16
Lattice="4.905015620228961 0.0 0.0 0.0 6.304205520644793 0.009618037703717292 0.0 -2.9847362131667867 11.5947129602009" Properties=species:S:1:pos:R:3:initial_magmoms:R:1:castep_labels:S:1 n_minim_iter=2 pbc="T T T"
P        4.24626702      -1.56655161      10.57772151       0.00000000 NULL
P        4.24626702       1.73391816       1.02180047       0.00000000 NULL
P        0.65874860       4.88602092       1.02660949       0.00000000 NULL
P        0.65874860       1.58555115      10.58253053       0.00000000 NULL
P        4.03362849       3.43150080       2.13350637       0.00000000 NULL
P        4.03362849       3.04007126       9.47563365       0.00000000 NULL
P        0.87138714      -0.11203150       9.47082463       0.00000000 NULL
P        0.87138714       0.27939804       2.12869735       0.00000000 NULL
P        2.67673480       1.85818365      10.39219405       0.00000000 NULL
P        2.67673480       4.61338842       1.21694597       0.00000000 NULL
P        2.22828082       1.46128566       1.21213695       0.00000000 NULL
P        2.22828082      -1.29391911      10.38738503       0.00000000 NULL
P        3.41459672       4.46314176       3.74342582       0.00000000 NULL
P        3.41459672       2.00843031       7.86571420       0.00000000 NULL
P        1.49041890      -1.14367245       7.86090518       0.00000000 NULL
P        1.49041890       1.31103900       3.73861680       0.00000000 NULL
16
Lattice="5.150448103412711 0.0 0.0 0.0 6.601603527257304 0.1527599710587288 0.0 -2.862782671832029 11.917774340991112" Properties=species:S:1:pos:R:3:initial_magmoms:R:1:castep_labels:S:1 n_minim_iter=3 pbc="T T T"
P        4.46239724      -1.39722526      10.89669162       0.00000000 NULL
P        4.46239724       1.83524435       1.09746271       0.00000000 NULL
P        0.68805086       5.13604611       1.17384269       0.00000000 NULL
P        0.68805086       1.90357650      10.97307161       0.00000000 NULL
P        4.23994434       3.64247209       2.28497314       0.00000000 NULL
P        4.23994434       3.39715053       9.86194116       0.00000000 NULL
P        0.91050377       0.09634877       9.78556117       0.00000000 NULL
P        0.91050377       0.34167033       2.20859316       0.00000000 NULL
P        2.81241293       2.17947552      10.78670790       0.00000000 NULL
P        2.81241293       4.86014710       1.36020640       0.00000000 NULL
P        2.33803517       1.55934534       1.28382641       0.00000000 NULL
P        2.33803517      -1.12132625      10.71032791       0.00000000 NULL
P        3.58396182       4.75980194       3.97219122       0.00000000 NULL
P        3.58396182       2.27982068       8.17472308       0.00000000 NULL
P        1.56648629      -1.02098109       8.09834309       0.00000000 NULL
P        1.56648629       1.45900018       3.89581124       0.00000000 NULL
16
Lattice="5.234610175268807 0.0 0.0 0.0 6.7460144159426365 0.26034636791763704 0.0 -2.7334420393372874 11.822313239904801" Properties=species:S:1:pos:R:3:initial_magmoms:R:1:castep_labels:S:1 n_minim_iter=4 pbc="T T T"
P        4.53711512      -1.24948675      10.82762631       0.00000000 NULL
P        4.53711512       1.88905192       1.12486012       0.00000000 NULL
P        0.69749506       5.26205913       1.25503330       0.00000000 NULL
P        0.69749506       2.12352046      10.95779949       0.00000000 NULL
P        4.31240619       3.75892216       2.33690608       0.00000000 NULL
P        4.31240619       3.62665742       9.87592671       0.00000000 NULL
P        0.92220398       0.25365022       9.74575353       0.00000000 NULL
P        0.92220398       0.38591495       2.20673290       0.00000000 NULL
P        2.85937460       2.39756427      10.78107878       0.00000000 NULL
P        2.85937460       4.98801531       1.43175401       0.00000000 NULL
P        2.37523557       1.61500811       1.30158083       0.00000000 NULL
P        2.37523557      -0.97544294      10.65090560       0.00000000 NULL
P        3.64128688       4.92641384       4.03341649       0.00000000 NULL
P        3.64128688       2.45916574       8.17941631       0.00000000 NULL
P        1.59332329      -0.91384147       8.04924312       0.00000000 NULL
P        1.59332329       1.55340664       3.90324330       0.00000000 NULL
16
Lattice="5.27511508946297 0.0 0.0 0.0 6.872403124626255 0.3882126138186196 0.0 -2.55817326110132 11.546034968605651" Properties=species:S:1:pos:R:3:initial_magmoms:R:1:castep_labels:S:1 n_minim_iter=5 pbc="T T T"
P        4.57411381      -1.06241854      10.59676881       0.00000000 NULL
P        4.57411381       1.94044684       1.14337246       0.00000000 NULL
P        0.70100128       5.37664840       1.33747877       0.00000000 NULL
P        0.70100128       2.37378302      10.79087512       0.00000000 NULL
P        4.34994357       3.87295539       2.36898837       0.00000000 NULL
P        4.34994357       3.87747604       9.75936552       0.00000000 NULL
P        0.92517152       0.44127448       9.56525922       0.00000000 NULL
P        0.92517152       0.43675382       2.17488206       0.00000000 NULL
P        2.88240992       2.64311894      10.62860850       0.00000000 NULL
P        2.88240992       5.10731249       1.49974539       0.00000000 NULL
P        2.39270517       1.67111093       1.30563908       0.00000000 NULL
P        2.39270517      -0.79308263      10.43450219       0.00000000 NULL
P        3.66772183       5.09219126       4.05266677       0.00000000 NULL
P        3.66772183       2.65824016       8.07568712       0.00000000 NULL
P        1.60739326      -0.77796140       7.88158082       0.00000000 NULL
P        1.60739326       1.65598970       3.85856046       0.00000000 NULL
16
Lattice="5.354239752950221 0.0 0.0 0.0 7.179038552102285 0.7611792222831998 0.0 -2.0174022043463187 10.677676298178309" Properties=species:S:1:pos:R:3:initial_magmoms:R:1:castep_labels:S:1 n_minim_iter=6 pbc="T T T"
P        4.64877758      -0.50188661       9.86543049       0.00000000 NULL
P        4.64877758       2.07400368       1.19283542       0.00000000 NULL
P        0.70546217       5.66352296       1.57342503       0.00000000 NULL
P        0.70546217       3.08763267      10.24602011       0.00000000 NULL
P        4.43030069       4.17201106       2.45228810       0.00000000 NULL
P        4.43030069       4.57914456       9.36715704       0.00000000 NULL
P        0.92393907       0.98962529       8.98656742       0.00000000 NULL
P        0.92393907       0.58249179       2.07169849       0.00000000 NULL
P        2.92685901       3.33896505      10.12533360       0.00000000 NULL
P        2.92685901       5.41219057       1.69411153       0.00000000 NULL
P        2.42738075       1.82267130       1.31352192       0.00000000 NULL
P        2.42738075      -0.25055422       9.74474399       0.00000000 NULL
P        3.71652691       5.53082016       4.08681172       0.00000000 NULL
P        3.71652691       3.22033546       7.73263341       0.00000000 NULL
P        1.63771285      -0.36918381       7.35204380       0.00000000 NULL
P        1.63771285       1.94130088       3.70622211       0.00000000 NULL
16
Lattice="5.48392921005127 0.0 0.0 0.0 7.2823984295573245 0.9465870593941198 0.0 -1.7252041522107695 10.82162280573254" Properties=species:S:1:pos:R:3:initial_magmoms:R:1:castep_labels:S:1 n_minim_iter=7 pbc="T T T"
P        4.76687704      -0.21384563      10.01873433       0.00000000 NULL
P        4.76687704       2.12984070       1.27618200       0.00000000 NULL
P        0.71705217       5.77103991       1.74947553       0.00000000 NULL
P        0.71705217       3.42735358      10.49202786       0.00000000 NULL
P        4.55384793       4.29531280       2.60694128       0.00000000 NULL
P        4.55384793       4.90308069       9.63456211       0.00000000 NULL
P        0.93008128       1.26188147       9.16126858       0.00000000 NULL
P        0.93008128       0.65411359       2.13364775       0.00000000 NULL
P        2.99326912       3.66102733      10.38249959       0.00000000 NULL
P        2.99326912       5.53736616       1.85900380       0.00000000 NULL
P        2.49066009       1.89616695       1.38571027       0.00000000 NULL
P        2.49066009       0.01982812       9.90920606       0.00000000 NULL
P        3.80151656       5.70997386       4.28377700       0.00000000 NULL
P        3.80151656       3.48841963       7.95772640       0.00000000 NULL
P        1.68241265      -0.15277959       7.48443287       0.00000000 NULL
P        1.68241265       2.06877465       3.81048347       0.00000000 NULL
16
Lattice="5.434464174279279 0.0 0.0 0.0 7.187972117539578 0.9167910983161758 0.0 -1.7351011648059484 10.526789468119201" Properties=species:S:1:pos:R:3:initial_magmoms:R:1:castep_labels:S:1 n_minim_iter=8 pbc="T T T"
P        4.72496518      -0.23901019       9.74419570       0.00000000 NULL
P        4.72496518       2.09789509       1.24098932       0.00000000 NULL
P        0.70949899       5.69188114       1.69938487       0.00000000 NULL
P        0.70949899       3.35497587      10.20259125       0.00000000 NULL
P        4.51581669       4.23638682       2.53699353       0.00000000 NULL
P        4.51581669       4.81047019       9.36498259       0.00000000 NULL
P        0.91864748       1.21648413       8.90658704       0.00000000 NULL
P        0.91864748       0.64240076       2.07859798       0.00000000 NULL
P        2.96547956       3.58178929      10.09610187       0.00000000 NULL
P        2.96547956       5.46506772       1.80587425       0.00000000 NULL
P        2.46898461       1.87108166       1.34747870       0.00000000 NULL
P        2.46898461      -0.01219677       9.63770632       0.00000000 NULL
P        3.76629500       5.62288689       4.15961621       0.00000000 NULL
P        3.76629500       3.42397012       7.74235990       0.00000000 NULL
P        1.66816918      -0.17001593       7.28396436       0.00000000 NULL
P        1.66816918       2.02890083       3.70122066       0.00000000 NULL
16
Lattice="5.4454224216599485 0.0 0.0 0.0 7.189240822863087 0.9417029718966652 0.0 -1.6898307481983608 10.523893530502784" Properties=species:S:1:pos:R:3:initial_magmoms:R:1:castep_labels:S:1 n_minim_iter=9 pbc="T T T"
P        4.73544582      -0.19690053       9.74416118       0.00000000 NULL
P        4.73544582       2.10169020       1.25058384       0.00000000 NULL
P        0.70997661       5.69631061       1.72143533       0.00000000 NULL
P        0.70997661       3.39771988      10.21501266       0.00000000 NULL
P        4.52851285       4.24700002       2.55523264       0.00000000 NULL
P        4.52851285       4.84703046       9.38121535       0.00000000 NULL
P        0.91690957       1.25241005       8.91036387       0.00000000 NULL
P        0.91690957       0.65237961       2.08438115       0.00000000 NULL
P        2.97020095       3.61990809      10.10969195       0.00000000 NULL
P        2.97020095       5.47412240       1.82675604       0.00000000 NULL
P        2.47522147       1.87950199       1.35590455       0.00000000 NULL
P        2.47522147       0.02528768       9.63884047       0.00000000 NULL
P        3.77271842       5.63708545       4.17759478       0.00000000 NULL
P        3.77271842       3.45694503       7.75885321       0.00000000 NULL
P        1.67270400      -0.13767538       7.28800172       0.00000000 NULL
P        1.67270400       2.04246504       3.70674330       0.00000000 NULL
16
Lattice="5.454106842650256 0.0 0.0 0.0 7.180477746728946 0.969357374206613 0.0 -1.634732280103079 10.485335247403968" Properties=species:S:1:pos:R:3:initial_magmoms:R:1:castep_labels:S:1 n_minim_iter=10 pbc="T T T"
P        4.74434735      -0.14734376       9.71158313       0.00000000 NULL
P        4.74434735       2.10285036       1.25843080       0.00000000 NULL
P        0.70975949       5.69308923       1.74310949       0.00000000 NULL
P        0.70975949       3.44289511      10.19626182       0.00000000 NULL
P        4.54090509       4.25392428       2.57013632       0.00000000 NULL
P        4.54090509       4.88206006       9.36923499       0.00000000 NULL
P        0.91320175       1.29182119       8.88455630       0.00000000 NULL
P        0.91320175       0.66368541       2.08545764       0.00000000 NULL
P        2.97312789       3.65816157      10.09251753       0.00000000 NULL
P        2.97312789       5.47782277       1.84685378       0.00000000 NULL
P        2.48097896       1.88758390       1.36217509       0.00000000 NULL
P        2.48097896       0.06792270       9.60783884       0.00000000 NULL
P        3.77701263       5.64494495       4.18512964       0.00000000 NULL
P        3.77701263       3.49103939       7.75424167       0.00000000 NULL
P        1.67709422      -0.09919948       7.26956298       0.00000000 NULL
P        1.67709422       2.05470608       3.70045096       0.00000000 NULL
16
Lattice="5.558001402823091 0.0 0.0 0.0 7.107471224777053 1.2907392975880227 0.0 -1.0081445760396925 10.109179469065023" Properties=species:S:1:pos:R:3:initial_magmoms:R:1:castep_labels:S:1 n_minim_iter=11 pbc="T T T"
P        4.85059483       0.41953968       9.39988100       0.00000000 NULL
P        4.85059483       2.12605136       1.35466812       0.00000000 NULL
P        0.70740657       5.67978697       2.00003777       0.00000000 NULL
P        0.70740657       3.97327529      10.04525065       0.00000000 NULL
P        4.69210206       4.35453319       2.76100256       0.00000000 NULL
P        4.69210206       5.29852908       9.28428586       0.00000000 NULL
P        0.86589934       1.74479346       8.63891621       0.00000000 NULL
P        0.86589934       0.80079757       2.11563291       0.00000000 NULL
P        3.00660280       4.10671172       9.95205808       0.00000000 NULL
P        3.00660280       5.54635054       2.09323034       0.00000000 NULL
P        2.55139861       1.99261493       1.44786069       0.00000000 NULL
P        2.55139861       0.55297611       9.30668843       0.00000000 NULL
P        3.82669982       5.75253011       4.29270797       0.00000000 NULL
P        3.82669982       3.90053215       7.75258045       0.00000000 NULL
P        1.73130159       0.34679654       7.10721080       0.00000000 NULL
P        1.73130159       2.19879450       3.64733832       0.00000000 NULL
16
Lattice="5.647021939213087 0.0 0.0 0.0 7.1783702853725995 1.0305817893303388 0.0 -1.5209852031119144 10.193746212247069" Properties=species:S:1:pos:R:3:initial_magmoms:R:1:castep_labels:S:1 n_minim_iter=12 pbc="T T T"
P        4.91662832      -0.03431647       9.42951850       0.00000000 NULL
P        4.91662832       2.10251641       1.27951860       0.00000000 NULL
P        0.73039362       5.69170155       1.79480950       0.00000000 NULL
P        0.73039362       3.55486868       9.94480940       0.00000000 NULL
P        4.78899308       4.31182750       2.65976956       0.00000000 NULL
P        4.78899308       4.93474272       9.07984933       0.00000000 NULL
P        0.85802886       1.34555758       8.56455844       0.00000000 NULL
P        0.85802886       0.72264236       2.14447867       0.00000000 NULL
P        3.04336738       3.66893724       9.82345697       0.00000000 NULL
P        3.04336738       5.57763298       1.91616193       0.00000000 NULL
P        2.60365456       1.98844784       1.40087103       0.00000000 NULL
P        2.60365456       0.07975210       9.30816608       0.00000000 NULL
P        3.87139777       5.63316423       4.06562414       0.00000000 NULL
P        3.87139777       3.61340600       7.67399476       0.00000000 NULL
P        1.77562417       0.02422086       7.15870386       0.00000000 NULL
P        1.77562417       2.04397908       3.55033324       0.00000000 NULL
16
Lattice="5.488405629948921 0.0 0.0 0.0 7.26216949123579 1.3292124474712874 0.0 -1.0109739015757875 10.48071558515537" Properties=species:S:1:pos:R:3:initial_magmoms:R:1:castep_labels:S:1 n_minim_iter=13 pbc="T T T"
P        4.77849400       0.44381337       9.74275063       0.00000000 NULL
P        4.77849400       2.17629748       1.40257118       0.00000000 NULL
P        0.70991163       5.80738222       2.06717741       0.00000000 NULL
P        0.70991163       4.07489811      10.40735685       0.00000000 NULL
P        4.65943436       4.46545260       2.90800623       0.00000000 NULL
P        4.65943436       5.41682774       9.56652802       0.00000000 NULL
P        0.82897127       1.78574299       8.90192180       0.00000000 NULL
P        0.82897127       0.83436785       2.24340001       0.00000000 NULL
P        2.95921609       4.18258703      10.28728957       0.00000000 NULL
P        2.95921609       5.69969330       2.18724469       0.00000000 NULL
P        2.52918954       2.06860856       1.52263847       0.00000000 NULL
P        2.52918954       0.55150229       9.62268334       0.00000000 NULL
P        3.75702278       5.86943330       4.41199742       0.00000000 NULL
P        3.75702278       4.01284704       8.06253683       0.00000000 NULL
P        1.73138285       0.38176229       7.39793061       0.00000000 NULL
P        1.73138285       2.23834855       3.74739120       0.00000000 NULL
16
Lattice="5.437718308921373 0.0 0.0 0.0 7.186153522134995 1.2536303867831131 0.0 -1.1139531101202391 10.1605411281593" Properties=species:S:1:pos:R:3:initial_magmoms:R:1:castep_labels:S:1 n_minim_iter=14 pbc="T T T"
P        4.73484279       0.33700881       9.44050309       0.00000000 NULL
P        4.73484279       2.14211484       1.34685323       0.00000000 NULL
P        0.70287551       5.73519160       1.97366842       0.00000000 NULL
P        0.70287551       3.93008558      10.06731829       0.00000000 NULL
P        4.61690821       4.39744189       2.79959094       0.00000000 NULL
P        4.61690821       5.26783528       9.24139577       0.00000000 NULL
P        0.82081010       1.67475852       8.61458057       0.00000000 NULL
P        0.82081010       0.80436513       2.17277575       0.00000000 NULL
P        2.93340605       4.03699285       9.94813717       0.00000000 NULL
P        2.93340605       5.62828432       2.09284954       0.00000000 NULL
P        2.50431226       2.03520756       1.46603434       0.00000000 NULL
P        2.50431226       0.44391609       9.32132198       0.00000000 NULL
P        3.72109511       5.77026714       4.24397737       0.00000000 NULL
P        3.72109511       3.89501003       7.79700934       0.00000000 NULL
P        1.71662319       0.30193327       7.17019415       0.00000000 NULL
P        1.71662319       2.17719038       3.61716217       0.00000000 NULL
16
Lattice="5.462963381363449 0.0 0.0 0.0 7.2204329167667405 1.2870642445468479 0.0 -1.068711358379075 10.229823407956951" Properties=species:S:1:pos:R:3:initial_magmoms:R:1:castep_labels:S:1 n_minim_iter=15 pbc="T T T"
P        4.75702251       0.38394768       9.50963744       0.00000000 NULL
P        4.75702251       2.15755743       1.36371809       0.00000000 NULL
P        0.70594087       5.76777388       2.00725021       0.00000000 NULL
P        0.70594087       3.99416413      10.15316956       0.00000000 NULL
P        4.63931722       4.42775846       2.83605138       0.00000000 NULL
P        4.63931722       5.33417956       9.32436839       0.00000000 NULL
P        0.82364616       1.72396310       8.68083627       0.00000000 NULL
P        0.82364616       0.81754200       2.19251926       0.00000000 NULL
P        2.94749548       4.10068338      10.03303595       0.00000000 NULL
P        2.94749548       5.66125463       2.12738382       0.00000000 NULL
P        2.51546790       2.05103817       1.48385170       0.00000000 NULL
P        2.51546790       0.49046693       9.38950383       0.00000000 NULL
P        3.73725253       5.81426549       4.29397775       0.00000000 NULL
P        3.73725253       3.94767253       7.86644203       0.00000000 NULL
P        1.72571085       0.33745607       7.22290991       0.00000000 NULL
P        1.72571085       2.20404903       3.65044562       0.00000000 NULL
