2
Lattice="2.2071500000000044 1.4909166224999426e-15 1.3424750559400457e-14 0.21082732317144662 4.497641437042795 -1.167528941329014e-15 1.0999995356822534 0.15325970890132726 4.3845332640118375" Properties=species:S:1:pos:R:3:initial_magmoms:R:1:castep_labels:S:1 n_minim_iter=1 pbc="T T T"
P        3.17933446       4.59280813       4.03559983       0.00000000 NULL
P        1.61350945       4.17783067       1.62058005       0.00000000 NULL
2
Lattice="2.208346431687945 3.4271160721459644e-05 0.0001920662373721125 0.21101144291078236 4.497063603537272 -0.00017508967700352715 1.1009797352590478 0.15306841612152974 4.387220551907482" Properties=species:S:1:pos:R:3:initial_magmoms:R:1:castep_labels:S:1 n_minim_iter=2 pbc="T T T"
P        3.18147556       4.59211434       4.03782477       0.00000000 NULL
P        1.61459480       4.17722243       1.62174667       0.00000000 NULL
2
Lattice="2.34388422891074 0.0037738815188177385 0.02313424193086622 0.2315784625886501 4.43398331133485 -0.019516875146151542 1.2143636820158517 0.1317787930546672 4.692246884638194" Properties=species:S:1:pos:R:3:initial_magmoms:R:1:castep_labels:S:1 n_minim_iter=3 pbc="T T T"
P        3.42553072       4.51609119       4.29117965       0.00000000 NULL
P        1.73851433       4.11057977       1.75590959       0.00000000 NULL
2
Lattice="2.3927019785762527 0.00034248214345326513 0.07564270593868444 0.22924917435158412 4.384568715519743 -0.017206562053551835 1.3427639782260066 0.12575872029698462 4.751764498252981" Properties=species:S:1:pos:R:3:initial_magmoms:R:1:castep_labels:S:1 n_minim_iter=4 pbc="T T T"
P        3.57880827       4.45847884       4.39196821       0.00000000 NULL
P        1.81217089       4.06161674       1.80700752       0.00000000 NULL
2
Lattice="2.394092057818363 -0.0045378626658392094 0.13136248756435712 0.21943698471529977 4.325374260554782 -0.01610782626471471 1.4538059836616586 0.11720784431679745 4.83436515628341" Properties=species:S:1:pos:R:3:initial_magmoms:R:1:castep_labels:S:1 n_minim_iter=5 pbc="T T T"
P        3.66632366       4.38848046       4.51577300       0.00000000 NULL
P        1.85107182       4.00118257       1.86688173       0.00000000 NULL
2
Lattice="2.3771989901190613 -0.01376139838018875 0.25500906406252605 0.19902800631868167 4.148027222003904 -0.015754163773716096 1.690371946379786 0.09542888586683757 4.9864970046521" Properties=species:S:1:pos:R:3:initial_magmoms:R:1:castep_labels:S:1 n_minim_iter=6 pbc="T T T"
P        3.83739261       4.18685044       4.76075822       0.00000000 NULL
P        1.92353193       3.82425727       1.98531692       0.00000000 NULL
2
Lattice="2.348227379703814 -0.009605774117810786 0.2662609235246358 0.20472879729683785 3.956860577586538 -0.024930779127523988 1.6985736018420854 0.08097873769644548 4.933831416379547" Properties=species:S:1:pos:R:3:initial_magmoms:R:1:castep_labels:S:1 n_minim_iter=7 pbc="T T T"
P        3.82696557       3.98961800       4.70978715       0.00000000 NULL
P        1.91639496       3.64406251       1.96600707       0.00000000 NULL
2
Lattice="2.3445041670935938 -0.008390622015123021 0.26798485576495473 0.2068493434768212 3.865022966093208 -0.02849700455126995 1.7002270191302737 0.07481390092216099 4.938496331127068" Properties=species:S:1:pos:R:3:initial_magmoms:R:1:castep_labels:S:1 n_minim_iter=8 pbc="T T T"
P        3.82751407       3.89505367       4.70750315       0.00000000 NULL
P        1.91700803       3.55725907       1.96983268       0.00000000 NULL
2
Lattice="2.3387956823484757 -0.006829115069966533 0.2697485181016815 0.20948604410096439 3.771392964828291 -0.031245211784058802 1.7009939908868996 0.06955322324517105 4.926514389055689" Properties=species:S:1:pos:R:3:initial_magmoms:R:1:castep_labels:S:1 n_minim_iter=9 pbc="T T T"
P        3.82611501       3.79962401       4.69152825       0.00000000 NULL
P        1.91673576       3.46953727       1.96748697       0.00000000 NULL
2
Lattice="2.292979635156177 0.005122464642228685 0.2778239759114792 0.2294641360130898 3.2369786857404113 -0.05225637121183994 1.6950320845273263 0.03602554394988978 4.833552072894973" Properties=species:S:1:pos:R:3:initial_magmoms:R:1:castep_labels:S:1 n_minim_iter=10 pbc="T T T"
P        3.80191103       3.25418447       4.56741767       0.00000000 NULL
P        1.90963697       2.96917397       1.94249781       0.00000000 NULL
