8
Lattice="5.47287 -4.378359734082478e-16 -3.0425622858551503e-16 0.5463208428507563 5.617295788603876 6.151733819653757e-16 0.5463208428507564 0.3941212712634388 5.603452542870737" Properties=species:S:1:pos:R:3:initial_magmoms:R:1:castep_labels:S:1 n_minim_iter=1 pbc="T T T"
P        1.19399435       0.91244300       5.06783925       0.00000000 NULL
P        3.93042935       5.11936900       0.55462413       0.00000000 NULL
P        2.56112635       4.07536144       1.58188771       0.00000000 NULL
P        5.29756135       1.86392523       3.95432957       0.00000000 NULL
P        3.07127221       2.62385862       3.48007575       0.00000000 NULL
P        5.80770721       3.65559490       2.37322296       0.00000000 NULL
P        5.84444955       4.41802699       0.46897536       0.00000000 NULL
P        3.10801455       0.77779767       4.37423492       0.00000000 NULL
8
Lattice="5.480260699095993 -0.0003541379391236939 -0.00033010438566257746 0.5466951246088375 5.6204082484881965 -0.0054274618980694675 0.5466951246088377 0.3889255615080578 5.606938134545666" Properties=species:S:1:pos:R:3:initial_magmoms:R:1:castep_labels:S:1 n_minim_iter=2 pbc="T T T"
P        1.19522220       0.90800753       5.07064224       0.00000000 NULL
P        3.93535255       5.12167682       0.54983788       0.00000000 NULL
P        2.56405023       4.07577627       1.57907486       0.00000000 NULL
P        5.30418058       1.86097135       3.95477567       0.00000000 NULL
P        3.07510429       2.62200609       3.47977146       0.00000000 NULL
P        5.81523464       3.65498431       2.37123130       0.00000000 NULL
P        5.85215906       4.41954343       0.46445062       0.00000000 NULL
P        3.11202871       0.77356756       4.37623014       0.00000000 NULL
8
Lattice="5.724860782990178 -0.011876465593719058 -0.011070469852396216 0.5592855573041801 5.723419015769242 -0.18653424194193444 0.5592855573041802 0.21549255223164365 5.722401874512002" Properties=species:S:1:pos:R:3:initial_magmoms:R:1:castep_labels:S:1 n_minim_iter=3 pbc="T T T"
P        1.23600289       0.75964931       5.16349858       0.00000000 NULL
P        4.09843328       5.19813403       0.38996009       0.00000000 NULL
P        2.66079691       4.08895740       1.48529118       0.00000000 NULL
P        5.52322730       1.76258244       3.96913420       0.00000000 NULL
P        3.20226900       2.55990789       3.46902739       0.00000000 NULL
P        6.06469940       3.63414861       2.30466977       0.00000000 NULL
P        6.10764091       4.47004352       0.31374577       0.00000000 NULL
P        3.24521052       0.63253846       4.44254973       0.00000000 NULL
8
Lattice="5.753229545429155 -0.010858999939585508 -0.010122054453803967 0.5631617414160475 5.695563809626255 -0.2721652371419673 0.5631617414160477 0.1281182060107657 5.700623365134855" Properties=species:S:1:pos:R:3:initial_magmoms:R:1:castep_labels:S:1 n_minim_iter=4 pbc="T T T"
P        1.24230889       0.67765731       5.14007202       0.00000000 NULL
P        4.11892366       5.16952120       0.31028801       0.00000000 NULL
P        2.67046853       4.04118338       1.42179078       0.00000000 NULL
P        5.54708330       1.69639534       3.92640744       0.00000000 NULL
P        3.22277262       2.49710217       3.42056077       0.00000000 NULL
P        6.09938739       3.58190358       2.24589357       0.00000000 NULL
P        6.14091247       4.43997759       0.24137401       0.00000000 NULL
P        3.26429770       0.55772683       4.41716144       0.00000000 NULL
8
Lattice="5.742408191572703 -0.007922534622133626 -0.007384872207711285 0.5650954732791209 5.645377509114693 -0.33570487990706815 0.5650954732791211 0.06121397388090753 5.655018818378337" Properties=species:S:1:pos:R:3:initial_magmoms:R:1:castep_labels:S:1 n_minim_iter=5 pbc="T T T"
P        1.24187832       0.61227359       5.09645705       0.00000000 NULL
P        4.11308242       5.12289449       0.24949414       0.00000000 NULL
P        2.66429998       3.98480339       1.36712351       0.00000000 NULL
P        5.53550407       1.63937528       3.87537056       0.00000000 NULL
P        3.22323923       2.43728465       3.36755609       0.00000000 NULL
P        6.09444332       3.52630084       2.19131097       0.00000000 NULL
P        6.13374664       4.39669749       0.18741457       0.00000000 NULL
P        3.26254254       0.49939551       4.37640531       0.00000000 NULL
8
Lattice="5.713494755715258 -0.0013387582248407096 -0.0012479034651170613 0.5689667522940204 5.532489240530561 -0.46872260385684816 0.5689667522940206 -0.0793964196541441 5.551741554188094" Properties=species:S:1:pos:R:3:initial_magmoms:R:1:castep_labels:S:1 n_minim_iter=6 pbc="T T T"
P        1.23945666       0.47398348       4.99794908       0.00000000 NULL
P        4.09620403       5.01821845       0.12152483       0.00000000 NULL
P        2.64852179       3.86102794       1.25062220       0.00000000 NULL
P        5.50526917       1.51776862       3.76314260       0.00000000 NULL
P        3.22155663       2.30802776       3.25173427       0.00000000 NULL
P        6.07830401       3.40498741       2.07356740       0.00000000 NULL
P        6.11304482       4.30097821       0.07500309       0.00000000 NULL
P        3.25629744       0.37725330       4.28574047       0.00000000 NULL
8
Lattice="5.613393279455962 0.03333515562656158 0.031072866963379832 0.5945632139989961 5.137283801795095 -0.9850523059699761 0.5945632139989964 -0.6221821241875952 5.193736834883378" Properties=species:S:1:pos:R:3:initial_magmoms:R:1:castep_labels:S:1 n_minim_iter=7 pbc="T T T"
P        1.23488518      -0.05835290       4.65814139       0.00000000 NULL
P        4.04158182       4.65923530      -0.36949765       0.00000000 NULL
P        2.59239846       3.40792616       0.81824867       0.00000000 NULL
P        5.39909510       1.07200702       3.35765406       0.00000000 NULL
P        3.23982681       1.82720243       2.83098970       0.00000000 NULL
P        6.04652345       2.96888096       1.63960773       0.00000000 NULL
P        6.06252132       3.97690489      -0.34499483       0.00000000 NULL
P        3.25582468      -0.08178420       3.97577334       0.00000000 NULL
8
Lattice="5.579885622347288 0.004614798118776394 0.0043016150761072194 0.5617400929036209 5.290479273127665 -0.8541188682513364 0.5617400929036213 -0.48082284236810124 5.337368206780696" Properties=species:S:1:pos:R:3:initial_magmoms:R:1:castep_labels:S:1 n_minim_iter=8 pbc="T T T"
P        1.17565490       0.08781262       4.81719881       0.00000000 NULL
P        3.96559771       4.81379584      -0.24823776       0.00000000 NULL
P        2.53074834       3.53167999       0.95126004       0.00000000 NULL
P        5.32069115       1.19901325       3.45838493       0.00000000 NULL
P        3.20896083       1.95991835       2.96240115       0.00000000 NULL
P        5.99890364       3.09492001       1.74939085       0.00000000 NULL
P        6.02171612       4.07278519      -0.26248963       0.00000000 NULL
P        3.23177330       0.02160502       4.07901425       0.00000000 NULL
8
Lattice="5.403472841526081 0.04569605969425608 0.04259489889703389 0.5862953296497139 5.235749601688788 -0.7834215036564645 0.5862953296497142 -0.4141396528358705 5.277813135373835" Properties=species:S:1:pos:R:3:initial_magmoms:R:1:castep_labels:S:1 n_minim_iter=9 pbc="T T T"
P        1.17949539       0.15241806       4.77949809       0.00000000 NULL
P        3.88123181       4.80126151      -0.16199973       0.00000000 NULL
P        2.48178833       3.51966515       0.99950035       0.00000000 NULL
P        5.18352476       1.26683231       3.46216170       0.00000000 NULL
P        3.16071059       1.99272698       2.97484982       0.00000000 NULL
P        5.86244701       3.13018055       1.80039185       0.00000000 NULL
P        5.87111119       4.07476285      -0.17385367       0.00000000 NULL
P        3.16937477       0.08962067       4.05562151       0.00000000 NULL
8
Lattice="5.529696646291323 0.04833959288533981 0.045059028840809326 0.6016087215754272 5.29866902976103 -0.834296599217634 0.6016087215754276 -0.46047481274325286 5.344147008573382" Properties=species:S:1:pos:R:3:initial_magmoms:R:1:castep_labels:S:1 n_minim_iter=10 pbc="T T T"
P        1.20631510       0.11798394       4.83797985       0.00000000 NULL
P        3.97116342       4.85850495      -0.19922014       0.00000000 NULL
P        2.54120583       3.54833477       0.98526987       0.00000000 NULL
P        5.30605415       1.25597019       3.49299118       0.00000000 NULL
P        3.23615754       1.99287286       2.99456594       0.00000000 NULL
P        6.00100587       3.15118009       1.80038611       0.00000000 NULL
P        6.01224431       4.12189898      -0.20731040       0.00000000 NULL
P        3.24739599       0.05823179       4.10375680       0.00000000 NULL
