3
Lattice="3.1868999999999996 1.2479305077396311e-16 -2.075739306003332e-15 -1.3070698292237755 3.0258297880801095 -1.2046980870670919e-15 -1.0775217888320618 -1.1504511419006378 6.863043811428836" Properties=species:S:1:pos:R:3:initial_magmoms:R:1:castep_labels:S:1 n_minim_iter=1 pbc="T T T"
P        0.46026582       2.20523410       1.13843004       0.00000000 NULL
P        1.17241603      -0.14059760       2.92737300       0.00000000 NULL
P        2.05557348       1.60362125       0.02782964       0.00000000 NULL
3
Lattice="3.1885806129454646 -0.0001341235271533515 -0.00017768781902903285 -1.3078864577465916 3.026172766407603 0.0010289588284301814 -1.078424256367636 -1.148346741753827 6.866278140433484" Properties=species:S:1:pos:R:3:initial_magmoms:R:1:castep_labels:S:1 n_minim_iter=2 pbc="T T T"
P        0.46038738       2.20589984       1.13977230       0.00000000 NULL
P        1.17284455      -0.13967196       2.92892697       0.00000000 NULL
P        2.05658577       1.60351724       0.02799703       0.00000000 NULL
3
Lattice="3.3048063622779766 -0.009642093951499658 -0.012744436672498584 -1.3645825167586796 3.049912190303594 0.07285086896199866 -1.1413516999164908 -1.0014625560265313 7.09054107747189" Properties=species:S:1:pos:R:3:initial_magmoms:R:1:castep_labels:S:1 n_minim_iter=3 pbc="T T T"
P        0.46852289       2.25216027       1.23338721       0.00000000 NULL
P        1.20214692      -0.07501022       3.03681117       0.00000000 NULL
P        2.12657169       1.59583807       0.03912866       0.00000000 NULL
3
Lattice="3.346406564962014 -0.021238196975785297 -0.018321019542836256 -1.3926543746062499 3.0242053206181763 0.12321831076956931 -1.163240277343831 -0.8769061126377495 7.098513020061006" Properties=species:S:1:pos:R:3:initial_magmoms:R:1:castep_labels:S:1 n_minim_iter=4 pbc="T T T"
P        0.46455413       2.25405663       1.27634534       0.00000000 NULL
P        1.21220582      -0.02883014       3.04397444       0.00000000 NULL
P        2.14811537       1.56245826       0.05537614       0.00000000 NULL
3
Lattice="3.3640562371091525 -0.02919091764071392 -0.025090610452684327 -1.4074439610518377 2.9953882922931365 0.16012052001567548 -1.180915349901437 -0.7846181688112783 7.072278495057056" Properties=species:S:1:pos:R:3:initial_magmoms:R:1:castep_labels:S:1 n_minim_iter=5 pbc="T T T"
P        0.45983777       2.24729167       1.30050370       0.00000000 NULL
P        1.21181086       0.00467972       3.03262762       0.00000000 NULL
P        2.15580338       1.53378858       0.06682692       0.00000000 NULL
3
Lattice="3.387884904290304 -0.03892829745767929 -0.03985239995590035 -1.4264622502517257 2.945319944111045 0.22064823196652983 -1.2172466864518878 -0.6372170968279313 7.026122220256852" Properties=species:S:1:pos:R:3:initial_magmoms:R:1:castep_labels:S:1 n_minim_iter=6 pbc="T T T"
P        0.45385130       2.23360156       1.33776107       0.00000000 NULL
P        1.20471990       0.05982450       3.01035849       0.00000000 NULL
P        2.16628820       1.48922126       0.08263907       0.00000000 NULL
3
Lattice="3.4067298383096327 -0.04502202654879853 -0.060953440366239474 -1.4399770237603946 2.895377355926932 0.28302614568727613 -1.2668599953811013 -0.4933645682590798 6.978484151431207" Properties=species:S:1:pos:R:3:initial_magmoms:R:1:castep_labels:S:1 n_minim_iter=7 pbc="T T T"
P        0.44987686       2.21905026       1.37366913       0.00000000 NULL
P        1.18786901       0.11613433       2.98410502       0.00000000 NULL
P        2.17480428       1.44951671       0.09320705       0.00000000 NULL
3
Lattice="3.446949668607162 -0.05606556131889475 -0.1300172190913844 -1.4669580972774428 2.796668624834786 0.4344596388061561 -1.425202094435145 -0.17115120772404702 6.875555000015897" Properties=species:S:1:pos:R:3:initial_magmoms:R:1:castep_labels:S:1 n_minim_iter=8 pbc="T T T"
P        0.44181345       2.19347339       1.45668437       0.00000000 NULL
P        1.12302655       0.24693872       2.91702519       0.00000000 NULL
P        2.19283196       1.37290326       0.09918439       0.00000000 NULL
3
Lattice="3.4700639383165717 -0.053329282281783776 -0.19283013752989622 -1.4738401613342662 2.827843155763441 0.47548523778793605 -1.5692737301171102 -0.14973572874410193 6.862710908454067" Properties=species:S:1:pos:R:3:initial_magmoms:R:1:castep_labels:S:1 n_minim_iter=9 pbc="T T T"
P        0.44035968       2.21316146       1.47031167       0.00000000 NULL
P        1.05883513       0.26688806       2.87961324       0.00000000 NULL
P        2.20769293       1.39623654       0.05191151       0.00000000 NULL
3
Lattice="3.459524645847448 -0.053967656730821364 -0.2307431771353351 -1.4701237037159216 2.82005051484126 0.49659124730137033 -1.647126225001902 -0.13385469354607737 6.757628183503886" Properties=species:S:1:pos:R:3:initial_magmoms:R:1:castep_labels:S:1 n_minim_iter=10 pbc="T T T"
P        0.43971504       2.20135761       1.46438406       0.00000000 NULL
P        1.00855129       0.27575591       2.81024923       0.00000000 NULL
P        2.19698933       1.39618645       0.02099667       0.00000000 NULL
3
Lattice="3.4667893785218964 -0.06144587580438086 -0.2625621091486011 -1.4802035088339704 2.8428594581494675 0.5110087246285281 -1.7154055266788077 -0.1357310059185492 6.77424469370113" Properties=species:S:1:pos:R:3:initial_magmoms:R:1:castep_labels:S:1 n_minim_iter=11 pbc="T T T"
P        0.43729879       2.20870078       1.47172953       0.00000000 NULL
P        0.97205673       0.27684302       2.80219434       0.00000000 NULL
P        2.19482798       1.40488465      -0.00965652       0.00000000 NULL
