18
Lattice="5.648829999999999 8.96437683317419e-17 -1.227214674090221e-16 2.0099667084618615 8.070410447708039 1.9222029500243385e-15 1.3224244960015068 3.3799937659056303 8.853808067403216" Properties=species:S:1:pos:R:3:initial_magmoms:R:1:castep_labels:S:1 n_minim_iter=1 pbc="T T T"
P        6.96375801       8.57803076       6.08191362       0.00000000 NULL
P        2.01746319       2.87237345       2.77189445       0.00000000 NULL
P        4.18584767       5.91984427       5.56759945       0.00000000 NULL
P        4.79537353       5.53055994       3.28620862       0.00000000 NULL
P        3.92828960       7.56538582       6.68928396       0.00000000 NULL
P        5.05293160       3.88501839       2.16452411       0.00000000 NULL
P        5.36245166       9.67681209       5.42155765       0.00000000 NULL
P        3.61876954       1.77359212       3.43225042       0.00000000 NULL
P        3.43211474       9.45071082       7.23093604       0.00000000 NULL
P        5.54910646       1.99969339       1.62287203       0.00000000 NULL
P        6.15863696       6.61258343       7.84115820       0.00000000 NULL
P        2.82258424       4.83782078       1.01264987       0.00000000 NULL
P        2.36459066       5.74686490       6.74892056       0.00000000 NULL
P        6.61663054       5.70353931       2.10488751       0.00000000 NULL
P        1.82611510       0.94927969       2.00375843       0.00000000 NULL
P        7.15510610      10.50112452       6.85004964       0.00000000 NULL
P        4.95096341       6.87267360       1.68825298       0.00000000 NULL
P        4.03025779       4.57773061       7.16555509       0.00000000 NULL
18
Lattice="5.656002108292349 -0.0077777633167321865 -0.0011165531686476702 2.001406698082007 8.086018897932153 0.006182967819155312 1.317699629563375 3.3930880356860387 8.870334605066287" Properties=species:S:1:pos:R:3:initial_magmoms:R:1:castep_labels:S:1 n_minim_iter=2 pbc="T T T"
P        6.95966085       8.59265846       6.09717794       0.00000000 NULL
P        2.01544759       2.87867071       2.77822308       0.00000000 NULL
P        4.18199735       5.93195848       5.58017847       0.00000000 NULL
P        4.79311108       5.53937069       3.29522255       0.00000000 NULL
P        3.92158540       7.58258027       6.70542116       0.00000000 NULL
P        5.05352304       3.88874890       2.16997986       0.00000000 NULL
P        5.35463829       9.69598207       5.43716761       0.00000000 NULL
P        3.62047014       1.77534710       3.43823341       0.00000000 NULL
P        3.42205992       9.47361362       7.24956506       0.00000000 NULL
P        5.55304852       1.99771555       1.62583596       0.00000000 NULL
P        6.15576546       6.62565376       7.85777155       0.00000000 NULL
P        2.81934297       4.84567541       1.01762947       0.00000000 NULL
P        2.35814300       5.76228801       6.76383215       0.00000000 NULL
P        6.61696544       5.70904116       2.11156887       0.00000000 NULL
P        1.82672802       0.95047873       2.00732170       0.00000000 NULL
P        7.14838042      10.52085044       6.86807932       0.00000000 NULL
P        4.94733499       6.88297172       1.69534588       0.00000000 NULL
P        4.02777345       4.58835746       7.18005514       0.00000000 NULL
18
Lattice="5.789821303615874 -0.16166632399975647 -0.02628225703905294 1.8291636459162322 8.380707258432622 0.12880844147976309 1.2175038534873688 3.647766404952485 9.188950753862855" Properties=species:S:1:pos:R:3:initial_magmoms:R:1:castep_labels:S:1 n_minim_iter=3 pbc="T T T"
P        6.86542057       8.86809096       6.39115583       0.00000000 NULL
P        1.97106824       2.99871638       2.90032111       0.00000000 NULL
P        4.09684007       6.16216796       5.82269690       0.00000000 NULL
P        4.73964873       5.70463938       3.46878004       0.00000000 NULL
P        3.77966126       7.91064502       7.01759483       0.00000000 NULL
P        5.05682754       3.95616232       2.27388211       0.00000000 NULL
P        5.18944292      10.05943396       5.73980103       0.00000000 NULL
P        3.64704588       1.80737338       3.55167591       0.00000000 NULL
P        3.21411600       9.91141108       7.61121785       0.00000000 NULL
P        5.62237280       1.95539626       1.68025908       0.00000000 NULL
P        6.08579487       6.87410219       8.17696374       0.00000000 NULL
P        2.75069394       4.99270515       1.11451320       0.00000000 NULL
P        2.22359324       6.05869547       7.05238146       0.00000000 NULL
P        6.61289556       5.80811187       2.23909548       0.00000000 NULL
P        1.83518875       0.97299655       2.07515384       0.00000000 NULL
P        7.00130005      10.89381079       7.21632310       0.00000000 NULL
P        4.86759713       7.07490135       1.83266481       0.00000000 NULL
P        3.96889167       4.79190599       7.45881213       0.00000000 NULL
18
Lattice="5.749799637878433 -0.27439742806851664 -0.09073968889346092 1.6538656645983938 8.3686265711076 0.23040028451752426 1.039652902002773 3.7697302362792016 9.362389143400412" Properties=species:S:1:pos:R:3:initial_magmoms:R:1:castep_labels:S:1 n_minim_iter=4 pbc="T T T"
P        6.57644543       8.85008807       6.53861039       0.00000000 NULL
P        1.86687277       3.01387131       2.96343935       0.00000000 NULL
P        3.88613514       6.18411680       5.95036219       0.00000000 NULL
P        4.55718307       5.67984258       3.55168755       0.00000000 NULL
P        3.52491801       7.95954574       7.19443390       0.00000000 NULL
P        4.91840020       3.90441364       2.30761584       0.00000000 NULL
P        4.89381786      10.07108768       5.91522080       0.00000000 NULL
P        3.54950034       1.79287170       3.58682894       0.00000000 NULL
P        2.91829256       9.98930777       7.83131567       0.00000000 NULL
P        5.52502564       1.87465161       1.67073406       0.00000000 NULL
P        5.81967074       6.89726920       8.32853354       0.00000000 NULL
P        2.62364746       4.96669018       1.17351619       0.00000000 NULL
P        2.01390312       6.13769972       7.21882998       0.00000000 NULL
P        6.42941508       5.72625966       2.28321976       0.00000000 NULL
P        1.78018348       0.97187643       2.10042451       0.00000000 NULL
P        6.66313473      10.89208295       7.40162523       0.00000000 NULL
P        4.67562061       7.02554366       1.90537135       0.00000000 NULL
P        3.76769759       4.83841572       7.59667839       0.00000000 NULL
18
Lattice="5.68054623264535 -0.396199402259226 -0.17621453378528049 1.4552070106777988 8.284869719575942 0.32258855616759324 0.8165889782850178 3.8587913344882576 9.51820212103442" Properties=species:S:1:pos:R:3:initial_magmoms:R:1:castep_labels:S:1 n_minim_iter=5 pbc="T T T"
P        6.21548952       8.74691869       6.65036552       0.00000000 NULL
P        1.73685271       3.00054296       3.01421063       0.00000000 NULL
P        3.62299743       6.14885079       6.05385310       0.00000000 NULL
P        4.32934479       5.59861086       3.61072304       0.00000000 NULL
P        3.21323435       7.93583485       7.34549875       0.00000000 NULL
P        4.73910788       3.81162680       2.31907740       0.00000000 NULL
P        4.53463968       9.99109099       6.06089870       0.00000000 NULL
P        3.41770254       1.75637067       3.60367744       0.00000000 NULL
P        2.56198850       9.97948608       8.02690462       0.00000000 NULL
P        5.39035372       1.76797557       1.63767152       0.00000000 NULL
P        5.48147647       6.85257795       8.44446600       0.00000000 NULL
P        2.47086575       4.89488370       1.22011015       0.00000000 NULL
P        1.75792349       6.16267308       7.36644508       0.00000000 NULL
P        6.19441873       5.58478857       2.29813106       0.00000000 NULL
P        1.70672151       0.95971134       2.11629402       0.00000000 NULL
P        6.24562071      10.78775031       7.54828212       0.00000000 NULL
P        4.44074755       6.90929208       1.95521361       0.00000000 NULL
P        3.51159467       4.83816957       7.70936253       0.00000000 NULL
18
Lattice="5.481303104326268 -0.785859555940081 -0.4969728191390301 0.8276098923129974 7.9774675043907015 0.5569952674610558 0.03404371167871133 4.079265200455587 10.008223575553954" Properties=species:S:1:pos:R:3:initial_magmoms:R:1:castep_labels:S:1 n_minim_iter=6 pbc="T T T"
P        5.03906698       8.34171137       6.91816096       0.00000000 NULL
P        1.30388973       2.92916178       3.15008506       0.00000000 NULL
P        2.74902511       5.98038697       6.33061905       0.00000000 NULL
P        3.59393160       5.29048618       3.73762697       0.00000000 NULL
P        2.17836554       7.78648372       7.76893293       0.00000000 NULL
P        4.16459117       3.48438943       2.29931310       0.00000000 NULL
P        3.36035363       9.66036101       6.44170466       0.00000000 NULL
P        2.98260308       1.61051214       3.62654137       0.00000000 NULL
P        1.37288789       9.86235988       8.59087109       0.00000000 NULL
P        4.97006882       1.40851327       1.47737494       0.00000000 NULL
P        4.35691781       6.63409254       8.74544719       0.00000000 NULL
P        1.98603889       4.63678061       1.32279884       0.00000000 NULL
P        0.89105957       6.17688227       7.80472254       0.00000000 NULL
P        5.45189714       5.09399088       2.26352349       0.00000000 NULL
P        1.46187695       0.90466657       2.15131877       0.00000000 NULL
P        4.88107976      10.36620658       7.91692725       0.00000000 NULL
P        3.69492661       6.49444141       2.03684544       0.00000000 NULL
P        2.64803010       4.77643174       8.03140058       0.00000000 NULL
18
Lattice="5.495530170912054 -0.7269478364044567 -0.6487756860030292 0.9168385798516988 8.093916531867308 0.4509882773489258 -0.16530694698280418 4.0760085918676285 10.07587640244465" Properties=species:S:1:pos:R:3:initial_magmoms:R:1:castep_labels:S:1 n_minim_iter=7 pbc="T T T"
P        4.98916261       8.46865169       6.76422981       0.00000000 NULL
P        1.25789919       2.97432560       3.11385919       0.00000000 NULL
P        2.66579738       6.06755395       6.25437897       0.00000000 NULL
P        3.58126442       5.37542334       3.62371002       0.00000000 NULL
P        2.09941299       7.87610792       7.70958097       0.00000000 NULL
P        4.14764881       3.56686937       2.16850803       0.00000000 NULL
P        3.32157210       9.80040288       6.31390068       0.00000000 NULL
P        2.92548971       1.64257441       3.56418831       0.00000000 NULL
P        1.28196262       9.96505969       8.54420739       0.00000000 NULL
P        4.96509918       1.47791760       1.33388160       0.00000000 NULL
P        4.22445366       6.72826909       8.64086103       0.00000000 NULL
P        2.02260814       4.71470820       1.23722796       0.00000000 NULL
P        0.76943998       6.21692125       7.79992259       0.00000000 NULL
P        5.47762183       5.22605604       2.07816641       0.00000000 NULL
P        1.42088469       0.92204749       2.12237261       0.00000000 NULL
P        4.82617711      10.52092979       7.75571638       0.00000000 NULL
P        3.73299168       6.61494105       1.86773231       0.00000000 NULL
P        2.51407012       4.82803624       8.01035668       0.00000000 NULL
18
Lattice="5.436703038823543 -0.7492018886192623 -0.7040904620573044 0.8641126326112268 8.007575125151313 0.4479264853165581 -0.27909323701658034 4.056187869510153 9.955963014963013" Properties=species:S:1:pos:R:3:initial_magmoms:R:1:castep_labels:S:1 n_minim_iter=8 pbc="T T T"
P        4.82593778       8.36658107       6.63661701       0.00000000 NULL
P        1.19578466       2.94798003       3.06318203       0.00000000 NULL
P        2.54048703       6.00866472       6.15732570       0.00000000 NULL
P        3.48123541       5.30589639       3.54247334       0.00000000 NULL
P        1.96924629       7.79881026       7.59941152       0.00000000 NULL
P        4.05247615       3.51575085       2.10038752       0.00000000 NULL
P        3.17095479       9.69782430       6.21132482       0.00000000 NULL
P        2.85076765       1.61673680       3.48847421       0.00000000 NULL
P        1.13630382       9.87551415       8.43919368       0.00000000 NULL
P        4.88541861       1.43904695       1.26060536       0.00000000 NULL
P        4.05380240       6.65705911       8.48932229       0.00000000 NULL
P        1.96792003       4.65750200       1.21047675       0.00000000 NULL
P        0.65510333       6.16337482       7.70125859       0.00000000 NULL
P        5.36661911       5.15118629       1.99854045       0.00000000 NULL
P        1.37748960       0.90958674       2.07963585       0.00000000 NULL
P        4.64423284      10.40497437       7.62016319       0.00000000 NULL
P        3.63706905       6.52975007       1.80763587       0.00000000 NULL
P        2.38465338       4.78481103       7.89216317       0.00000000 NULL
18
Lattice="5.480818096210489 -0.7640505172078024 -0.7335163223100708 0.8585956086247648 8.061365840933789 0.4519883282901188 -0.3237715789788491 4.093395542689924 9.980830069220973" Properties=species:S:1:pos:R:3:initial_magmoms:R:1:castep_labels:S:1 n_minim_iter=9 pbc="T T T"
P        4.82793706       8.41885369       6.63348691       0.00000000 NULL
P        1.18770507       2.97185717       3.06581517       0.00000000 NULL
P        2.52682779       6.05317333       6.16278968       0.00000000 NULL
P        3.48881434       5.33753754       3.53651239       0.00000000 NULL
P        1.94884749       7.85530808       7.61162155       0.00000000 NULL
P        4.06679463       3.53540279       2.08768052       0.00000000 NULL
P        3.15616950       9.76545635       6.21626313       0.00000000 NULL
P        2.85947262       1.62525452       3.48303894       0.00000000 NULL
P        1.09991708       9.94960799       8.46103635       0.00000000 NULL
P        4.91572505       1.44110288       1.23826572       0.00000000 NULL
P        4.04147959       6.70427661       8.48986668       0.00000000 NULL
P        1.97416253       4.68643426       1.20943539       0.00000000 NULL
P        0.62178669       6.20984275       7.71881067       0.00000000 NULL
P        5.39385543       5.18086812       1.98049141       0.00000000 NULL
P        1.37821307       0.91452241       2.07620437       0.00000000 NULL
P        4.63742905      10.47618846       7.62309770       0.00000000 NULL
P        3.64822198       6.56963508       1.79592413       0.00000000 NULL
P        2.36742015       4.82107578       7.90337795       0.00000000 NULL
18
Lattice="5.480986521666706 -0.7653823519236781 -0.7554314677449716 0.8567527627175968 8.057380650613952 0.4501219681320794 -0.358878203631682 4.098120433625125 9.960534032783595" Properties=species:S:1:pos:R:3:initial_magmoms:R:1:castep_labels:S:1 n_minim_iter=10 pbc="T T T"
P        4.80369807       8.41570927       6.60093372       0.00000000 NULL
P        1.17516301       2.97440947       3.05429081       0.00000000 NULL
P        2.50220397       6.05573648       6.14093311       0.00000000 NULL
P        3.47665711       5.33438226       3.51429142       0.00000000 NULL
P        1.92434517       7.85527199       7.58810845       0.00000000 NULL
P        4.05451591       3.53484674       2.06711609       0.00000000 NULL
P        3.13095165       9.76443494       6.19145955       0.00000000 NULL
P        2.84790944       1.62568379       3.46376498       0.00000000 NULL
P        1.06906692       9.95063104       8.44158641       0.00000000 NULL
P        4.90979416       1.43948770       1.21363812       0.00000000 NULL
P        4.00773041       6.70640613       8.45329990       0.00000000 NULL
P        1.97113067       4.68371260       1.20192463       0.00000000 NULL
P        0.59367010       6.21028456       7.70014421       0.00000000 NULL
P        5.38519098       5.17983417       1.95508033       0.00000000 NULL
P        1.36963108       0.91466635       2.06474140       0.00000000 NULL
P        4.60923001      10.47545239       7.59048314       0.00000000 NULL
P        3.63983167       6.56598208       1.77596771       0.00000000 NULL
P        2.33902941       4.82413665       7.87925682       0.00000000 NULL
18
Lattice="5.493571950307311 -0.7705669281898675 -0.8038710500674472 0.8538237728407129 8.062561651376994 0.44819097534730623 -0.4349568466568664 4.116639601082169 9.930003949073232" Properties=species:S:1:pos:R:3:initial_magmoms:R:1:castep_labels:S:1 n_minim_iter=11 pbc="T T T"
P        4.76189803       8.42277709       6.54045802       0.00000000 NULL
P        1.15054085       2.98585724       3.03386586       0.00000000 NULL
P        2.45421206       6.07251654       6.10267837       0.00000000 NULL
P        3.45822682       5.33611778       3.47164551       0.00000000 NULL
P        1.87624659       7.86911072       7.54819638       0.00000000 NULL
P        4.03619229       3.53952360       2.02612750       0.00000000 NULL
P        3.08246175       9.77922149       6.14738126       0.00000000 NULL
P        2.82997713       1.62941283       3.42694262       0.00000000 NULL
P        1.00453587       9.97105915       8.41249260       0.00000000 NULL
P        4.90790301       1.43757517       1.16183127       0.00000000 NULL
P        3.94341947       6.72312514       8.38591389       0.00000000 NULL
P        1.96901940       4.68550918       1.18840998       0.00000000 NULL
P        0.53426452       6.22250122       7.67058639       0.00000000 NULL
P        5.37817435       5.18613311       1.90373749       0.00000000 NULL
P        1.35409047       0.91626526       2.04226054       0.00000000 NULL
P        4.55834841      10.49236906       7.53206333       0.00000000 NULL
P        3.62918958       6.56910228       1.73575886       0.00000000 NULL
P        2.28324929       4.83953205       7.83856501       0.00000000 NULL
18
Lattice="5.534412260444279 -0.7807442731003393 -0.964084679719721 0.8538153309232122 8.065623594511822 0.457207523740883 -0.6825996085251986 4.189488768367067 9.82417372646917" Properties=species:S:1:pos:R:3:initial_magmoms:R:1:castep_labels:S:1 n_minim_iter=12 pbc="T T T"
P        4.63345727       8.44422946       6.34908782       0.00000000 NULL
P        1.07217071       3.03013863       2.96820875       0.00000000 NULL
P        2.29877027       6.13620355       5.98281300       0.00000000 NULL
P        3.40685771       5.33816454       3.33448357       0.00000000 NULL
P        1.73186504       7.91426308       7.42014543       0.00000000 NULL
P        3.97376294       3.56010501       1.89715114       0.00000000 NULL
P        2.92969265       9.82376441       6.01233834       0.00000000 NULL
P        2.77593534       1.65060368       3.30495823       0.00000000 NULL
P        0.80162013      10.03932312       8.32849297       0.00000000 NULL
P        4.90400786       1.43504497       0.98880360       0.00000000 NULL
P        3.73380044       6.78909510       8.16313111       0.00000000 NULL
P        1.97182754       4.68527299       1.15416546       0.00000000 NULL
P        0.34537638       6.26453914       7.57367747       0.00000000 NULL
P        5.36025160       5.20982895       1.74361910       0.00000000 NULL
P        1.30207961       0.92372718       1.96356205       0.00000000 NULL
P        4.40354837      10.55064091       7.35373452       0.00000000 NULL
P        3.60172438       6.57425371       1.60946398       0.00000000 NULL
P        2.10390360       4.90011438       7.70783259       0.00000000 NULL
18
Lattice="5.625308022091079 -0.8006439031846334 -0.9875178956834976 0.8577275166877936 8.170812914929453 0.48221524227687884 -0.709955900073994 4.268432905975553 9.989579331649061" Properties=species:S:1:pos:R:3:initial_magmoms:R:1:castep_labels:S:1 n_minim_iter=13 pbc="T T T"
P        4.69250091       8.54572107       6.46592203       0.00000000 NULL
P        1.08057873       3.09288085       3.01835465       0.00000000 NULL
P        2.31148894       6.24255994       6.09253848       0.00000000 NULL
P        3.46159070       5.39604198       3.39173820       0.00000000 NULL
P        1.76062159       8.02530502       7.55092657       0.00000000 NULL
P        4.01245805       3.61329690       1.93335011       0.00000000 NULL
P        2.94498169       9.95860521       6.12261286       0.00000000 NULL
P        2.82809795       1.67999671       3.36166382       0.00000000 NULL
P        0.79145090      10.19707177       8.49395144       0.00000000 NULL
P        4.98162874       1.44153015       0.99032524       0.00000000 NULL
P        3.76214488       6.89770753       8.29067818       0.00000000 NULL
P        2.01093476       4.74089439       1.19359850       0.00000000 NULL
P        0.33565946       6.35599041       7.70311126       0.00000000 NULL
P        5.43742017       5.28261151       1.78116542       0.00000000 NULL
P        1.31336175       0.93211511       1.98215703       0.00000000 NULL
P        4.45971789      10.70648681       7.50211965       0.00000000 NULL
P        3.64767910       6.65927346       1.62756152       0.00000000 NULL
P        2.12540054       4.97932846       7.85671516       0.00000000 NULL
18
Lattice="5.527673391247756 -0.786177050235688 -0.9876271743897976 0.8436557679533802 8.056705876586205 0.4747381019464842 -0.7243277412157865 4.213713985608421 9.871150048194435" Properties=species:S:1:pos:R:3:initial_magmoms:R:1:castep_labels:S:1 n_minim_iter=14 pbc="T T T"
P        4.59302102       8.43130041       6.37958464       0.00000000 NULL
P        1.05398040       3.05294241       2.97867634       0.00000000 NULL
P        2.25311294       6.16175474       6.01681651       0.00000000 NULL
P        3.39388848       5.32248808       3.34144446       0.00000000 NULL
P        1.71278936       7.91636944       7.45602357       0.00000000 NULL
P        3.93421206       3.56787337       1.90223740       0.00000000 NULL
P        2.87799885       9.82306450       6.04262172       0.00000000 NULL
P        2.76900257       1.66117831       3.31563926       0.00000000 NULL
P        0.75515050      10.06018958       8.39174001       0.00000000 NULL
P        4.89185092       1.42405323       0.96652097       0.00000000 NULL
P        3.67163324       6.80879049       8.18116560       0.00000000 NULL
P        1.97536817       4.67545232       1.17709537       0.00000000 NULL
P        0.31137419       6.26991953       7.60864737       0.00000000 NULL
P        5.33562723       5.21432328       1.74961361       0.00000000 NULL
P        1.28361466       0.92146144       1.95518417       0.00000000 NULL
P        4.36338676      10.56278137       7.40307680       0.00000000 NULL
P        3.58008115       6.56779421       1.59889296       0.00000000 NULL
P        2.06692027       4.91644860       7.75936802       0.00000000 NULL
18
Lattice="5.539437927630234 -0.793662945346188 -0.9932038940973432 0.8371468236868743 8.073457986777608 0.47951011978942787 -0.7347935852305203 4.227505225783131 9.876643786782957" Properties=species:S:1:pos:R:3:initial_magmoms:R:1:castep_labels:S:1 n_minim_iter=15 pbc="T T T"
P        4.59044023       8.44577538       6.38286193       0.00000000 NULL
P        1.05135094       3.06152489       2.98008808       0.00000000 NULL
P        2.24723503       6.17665674       6.02069043       0.00000000 NULL
P        3.39455613       5.33064353       3.34225958       0.00000000 NULL
P        1.70636688       7.93418224       7.46127571       0.00000000 NULL
P        3.93542428       3.57311802       1.90167431       0.00000000 NULL
P        2.86968996       9.84343638       6.04767481       0.00000000 NULL
P        2.77210121       1.66386389       3.31527520       0.00000000 NULL
P        0.74211561      10.08562604       8.40089230       0.00000000 NULL
P        4.89967556       1.42167423       0.96205771       0.00000000 NULL
P        3.66637572       6.82384868       8.18281144       0.00000000 NULL
P        1.97541545       4.68345159       1.18013858       0.00000000 NULL
P        0.30210772       6.28535700       7.61356162       0.00000000 NULL
P        5.33968345       5.22194327       1.74938840       0.00000000 NULL
P        1.28353586       0.92247470       1.95389252       0.00000000 NULL
P        4.35825530      10.58482556       7.40905749       0.00000000 NULL
P        3.57921510       6.57920368       1.59874227       0.00000000 NULL
P        2.06257607       4.92809659       7.76420774       0.00000000 NULL
18
Lattice="5.539642584073237 -0.7966936400540625 -0.9982332424350434 0.8328897301653614 8.077873602567507 0.4821983437348824 -0.7444419498319709 4.2340091055948506 9.871383262975703" Properties=species:S:1:pos:R:3:initial_magmoms:R:1:castep_labels:S:1 n_minim_iter=16 pbc="T T T"
P        4.58079481       8.44935922       6.37765040       0.00000000 NULL
P        1.04729555       3.06582985       2.97769796       0.00000000 NULL
P        2.23799249       6.18309907       6.01721788       0.00000000 NULL
P        3.39009787       5.33209000       3.33813049       0.00000000 NULL
P        1.69843056       7.94016957       7.45724523       0.00000000 NULL
P        3.92965981       3.57501950       1.89810313       0.00000000 NULL
P        2.85878858       9.84962741       6.04441196       0.00000000 NULL
P        2.76930179       1.66556166       3.31093640       0.00000000 NULL
P        0.73012454      10.09545144       8.39961539       0.00000000 NULL
P        4.89796582       1.41973763       0.95573297       0.00000000 NULL
P        3.65453235       6.83010279       8.17432964       0.00000000 NULL
P        1.97355801       4.68508628       1.18101872       0.00000000 NULL
P        0.29340780       6.29073017       7.60941068       0.00000000 NULL
P        5.33468257       5.22445890       1.74593768       0.00000000 NULL
P        1.28061470       0.92281021       1.95031942       0.00000000 NULL
P        4.34747567      10.59237886       7.40502894       0.00000000 NULL
P        3.57390364       6.58207770       1.59526080       0.00000000 NULL
P        2.05418673       4.93311137       7.76008757       0.00000000 NULL
18
Lattice="5.542797574331103 -0.814144462276734 -1.0371560697091622 0.8090805745343531 8.119830837387443 0.5006141636933285 -0.8151515792679126 4.285493911805462 9.839120005425809" Properties=species:S:1:pos:R:3:initial_magmoms:R:1:castep_labels:S:1 n_minim_iter=17 pbc="T T T"
P        4.51709372       8.48782084       6.34131929       0.00000000 NULL
P        1.01963285       3.10335945       2.96125881       0.00000000 NULL
P        2.17350210       6.24056886       5.99463947       0.00000000 NULL
P        3.36322447       5.35061143       3.30793863       0.00000000 NULL
P        1.64651994       7.99395943       7.43101733       0.00000000 NULL
P        3.89020663       3.59722086       1.87156077       0.00000000 NULL
P        2.78599773       9.90786793       6.02207480       0.00000000 NULL
P        2.75072884       1.68331236       3.28050330       0.00000000 NULL
P        0.64790229      10.18042872       8.39531354       0.00000000 NULL
P        4.88882428       1.41075157       0.90726456       0.00000000 NULL
P        3.57131688       6.88753256       8.11465493       0.00000000 NULL
P        1.96540969       4.70364773       1.18792317       0.00000000 NULL
P        0.23313378       6.33619137       7.58238563       0.00000000 NULL
P        5.30359279       5.25498891       1.72019247       0.00000000 NULL
P        1.25920250       0.92720339       1.92408986       0.00000000 NULL
P        4.27752407      10.66397690       7.37848824       0.00000000 NULL
P        3.54154350       6.61388544       1.56731935       0.00000000 NULL
P        1.99518307       4.97729485       7.73525875       0.00000000 NULL
18
Lattice="5.498880306383212 -0.7834590582343889 -1.1041366085249387 0.837293772466247 8.256346175230018 0.49415582024036353 -0.9120554746746574 4.364340395433397 9.813853580258034" Properties=species:S:1:pos:R:3:initial_magmoms:R:1:castep_labels:S:1 n_minim_iter=18 pbc="T T T"
P        4.43647194       8.63494357       6.27124240       0.00000000 NULL
P        0.98764666       3.20228394       2.93263039       0.00000000 NULL
P        2.08604505       6.39569598       5.95722148       0.00000000 NULL
P        3.33807355       5.44153153       3.24665131       0.00000000 NULL
P        1.60343441       8.13867473       7.38860487       0.00000000 NULL
P        3.82068419       3.69855278       1.81526793       0.00000000 NULL
P        2.71716694      10.08328523       5.96595047       0.00000000 NULL
P        2.70695167       1.75394228       3.23792232       0.00000000 NULL
P        0.57186420      10.39058251       8.38928755       0.00000000 NULL
P        4.85225440       1.44664500       0.81458524       0.00000000 NULL
P        3.44501640       7.05100626       8.01469305       0.00000000 NULL
P        1.97910221       4.78622125       1.18917974       0.00000000 NULL
P        0.17535654       6.43100832       7.53793700       0.00000000 NULL
P        5.24876207       5.40621919       1.66593579       0.00000000 NULL
P        1.21230039       0.94776628       1.87917957       0.00000000 NULL
P        4.21181822      10.88946123       7.32469323       0.00000000 NULL
P        3.51705336       6.75046429       1.48677308       0.00000000 NULL
P        1.90706524       5.08676322       7.71709971       0.00000000 NULL
18
Lattice="5.582068730847461 -0.9190820433477036 -1.1172186323037119 0.6731310711094523 8.319458784575085 0.5569557547531129 -0.9942353529099162 4.453236101464783 9.77252020554786" Properties=species:S:1:pos:R:3:initial_magmoms:R:1:castep_labels:S:1 n_minim_iter=19 pbc="T T T"
P        4.32283686       8.62848155       6.28010341       0.00000000 NULL
P        0.93812759       3.22513129       2.93215392       0.00000000 NULL
P        1.98614880       6.42872606       5.95811195       0.00000000 NULL
P        3.27481565       5.42488678       3.25414537       0.00000000 NULL
P        1.46686638       8.20082394       7.39345466       0.00000000 NULL
P        3.79409807       3.65278890       1.81880266       0.00000000 NULL
P        2.54899542      10.13199791       5.99307563       0.00000000 NULL
P        2.71196903       1.72161493       3.21918170       0.00000000 NULL
P        0.37334487      10.50668264       8.41063571       0.00000000 NULL
P        4.88761958       1.34693020       0.80162162       0.00000000 NULL
P        3.35632719       7.06161937       7.99338364       0.00000000 NULL
P        1.90463726       4.79199347       1.21887369       0.00000000 NULL
P        0.05849450       6.50869054       7.52676230       0.00000000 NULL
P        5.20246995       5.34492230       1.68549503       0.00000000 NULL
P        1.21064063       0.93177474       1.86431263       0.00000000 NULL
P        4.05032382      10.92183810       7.34794469       0.00000000 NULL
P        3.41769355       6.74109411       1.51846701       0.00000000 NULL
P        1.84327090       5.11251873       7.69379031       0.00000000 NULL
18
Lattice="5.507180687436183 -0.8586849483058265 -1.11321864502877 0.7327729567244694 8.263585665179116 0.5361401252181087 -0.9693588490568971 4.410576878589022 9.722210916452454" Properties=species:S:1:pos:R:3:initial_magmoms:R:1:castep_labels:S:1 n_minim_iter=20 pbc="T T T"
P        4.32463204       8.60361244       6.23288858       0.00000000 NULL
P        0.94596275       3.21186516       2.91224381       0.00000000 NULL
P        1.99813032       6.40164135       5.91903169       0.00000000 NULL
P        3.27246447       5.41383624       3.22610070       0.00000000 NULL
P        1.49872426       8.15360373       7.34469544       0.00000000 NULL
P        3.77187054       3.66187387       1.80043695       0.00000000 NULL
P        2.58689203      10.07863663       5.94410133       0.00000000 NULL
P        2.68370277       1.73684096       3.20103107       0.00000000 NULL
P        0.43275688      10.43457188       8.35420262       0.00000000 NULL
P        4.83783792       1.38090572       0.79092978       0.00000000 NULL
P        3.35187125       7.04165677       7.94117531       0.00000000 NULL
P        1.91872355       4.77382082       1.20395709       0.00000000 NULL
P        0.09506427       6.45795865       7.47902068       0.00000000 NULL
P        5.17553053       5.35751894       1.66611171       0.00000000 NULL
P        1.19681213       0.93685833       1.85313664       0.00000000 NULL
P        4.07378267      10.87861926       7.29199575       0.00000000 NULL
P        3.42780280       6.72237898       1.49374007       0.00000000 NULL
P        1.84279199       5.09309862       7.65139233       0.00000000 NULL
18
Lattice="5.528339781771755 -0.8562558116727915 -1.1167301974610395 0.7437722618651589 8.303951960062808 0.537370777433994 -0.9684558018621969 4.430410372854704 9.746874688436911" Properties=species:S:1:pos:R:3:initial_magmoms:R:1:castep_labels:S:1 n_minim_iter=21 pbc="T T T"
P        4.35084891       8.64785877       6.24775450       0.00000000 NULL
P        0.95280733       3.23024775       2.91976077       0.00000000 NULL
P        2.01193249       6.43535750       5.93341604       0.00000000 NULL
P        3.29172375       5.44274902       3.23409923       0.00000000 NULL
P        1.51288576       8.19471167       7.36391912       0.00000000 NULL
P        3.79077048       3.68339485       1.80359615       0.00000000 NULL
P        2.60707976      10.12864657       5.95858411       0.00000000 NULL
P        2.69657648       1.74945995       3.20893116       0.00000000 NULL
P        0.44403633      10.48676164       8.37661388       0.00000000 NULL
P        4.85961991       1.39134489       0.79090139       0.00000000 NULL
P        3.37248520       7.07921761       7.95973908       0.00000000 NULL
P        1.93117104       4.79888891       1.20777619       0.00000000 NULL
P        0.10242377       6.48786554       7.49709424       0.00000000 NULL
P        5.20123248       5.39024098       1.67042103       0.00000000 NULL
P        1.20205034       0.94203733       1.85641070       0.00000000 NULL
P        4.10160590      10.93606919       7.31110457       0.00000000 NULL
P        3.44785383       6.75879570       1.49570621       0.00000000 NULL
P        1.85580241       5.11931082       7.67180906       0.00000000 NULL
