12
Lattice="4.01299 0.0 0.0 0.0 7.293119999999999 0.0 0.0 0.0 9.368429999999998" Properties=species:S:1:pos:R:3:initial_magmoms:R:1:castep_labels:S:1 n_minim_iter=1 pbc="T T T"
P        2.93937352       2.15034653       6.71064576       0.00000000 NULL
P        1.07361648       2.15034653       2.65778424       0.00000000 NULL
P        0.93287852       2.15034653       7.34199924       0.00000000 NULL
P        3.08011148       2.15034653       2.02643076       0.00000000 NULL
P        3.01181882       2.72651760       4.78613790       0.00000000 NULL
P        1.00117118       2.72651760       4.58229210       0.00000000 NULL
P        1.00532382       2.72651760       9.26650710       0.00000000 NULL
P        3.00766618       2.72651760       0.10192290       0.00000000 NULL
P        2.21951374       5.80872430       8.19296840       0.00000000 NULL
P        1.79347626       5.80872430       1.17546160       0.00000000 NULL
P        0.21301874       5.80872430       5.85967660       0.00000000 NULL
P        3.79997126       5.80872430       3.50875340       0.00000000 NULL
12
Lattice="4.026011064118452 0.0 0.0 0.0 7.288589922196774 0.0 0.0 0.0 9.377753394796484" Properties=species:S:1:pos:R:3:initial_magmoms:R:1:castep_labels:S:1 n_minim_iter=2 pbc="T T T"
P        2.94891706       2.14894193       6.71747754       0.00000000 NULL
P        1.07709401       2.14894193       2.66027586       0.00000000 NULL
P        0.93591152       2.14894193       7.34915256       0.00000000 NULL
P        3.09009954       2.14894193       2.02860084       0.00000000 NULL
P        3.02157260       2.72488288       4.79081135       0.00000000 NULL
P        1.00443847       2.72488288       4.58694204       0.00000000 NULL
P        1.00856707       2.72488288       9.27581874       0.00000000 NULL
P        3.01744400       2.72488288       0.10193466       0.00000000 NULL
P        2.22668982       5.80512633       8.20124669       0.00000000 NULL
P        1.79932124       5.80512633       1.17650671       0.00000000 NULL
P        0.21368429       5.80512633       5.86538341       0.00000000 NULL
P        3.81232677       5.80512633       3.51236999       0.00000000 NULL
12
Lattice="4.34320175613525 0.0 0.0 0.0 7.178678103461436 0.0 0.0 0.0 9.594341059150363" Properties=species:S:1:pos:R:3:initial_magmoms:R:1:castep_labels:S:1 n_minim_iter=3 pbc="T T T"
P        3.18139107       2.11491936       6.87644185       0.00000000 NULL
P        1.16181069       2.11491936       2.71789921       0.00000000 NULL
P        1.00979019       2.11491936       7.51506974       0.00000000 NULL
P        3.33341157       2.11491936       2.07927132       0.00000000 NULL
P        3.25911394       2.68516429       4.89924755       0.00000000 NULL
P        1.08408781       2.68516429       4.69509350       0.00000000 NULL
P        1.08751307       2.68516429       9.49226403       0.00000000 NULL
P        3.25568869       2.68516429       0.10207703       0.00000000 NULL
P        2.40142761       5.71782908       8.39383135       0.00000000 NULL
P        1.94177415       5.71782908       1.20050971       0.00000000 NULL
P        0.22982673       5.71782908       5.99768024       0.00000000 NULL
P        4.11337503       5.71782908       3.59666082       0.00000000 NULL
12
Lattice="4.493257902995913 0.0 0.0 0.0 7.02878666596795 0.0 0.0 0.0 9.529569421302764" Properties=species:S:1:pos:R:3:initial_magmoms:R:1:castep_labels:S:1 n_minim_iter=4 pbc="T T T"
P        3.29190981       2.06962222       6.83472716       0.00000000 NULL
P        1.20134810       2.06962222       2.69484226       0.00000000 NULL
P        1.04528086       2.06962222       7.45962697       0.00000000 NULL
P        3.44797705       2.06962222       2.06994245       0.00000000 NULL
P        3.37112152       2.62984718       4.86377840       0.00000000 NULL
P        1.12213638       2.62984718       4.66579102       0.00000000 NULL
P        1.12449257       2.62984718       9.43057573       0.00000000 NULL
P        3.36876534       2.62984718       0.09899369       0.00000000 NULL
P        2.48279704       5.59882838       8.34355631       0.00000000 NULL
P        2.01046086       5.59882838       1.18601311       0.00000000 NULL
P        0.23616809       5.59882838       5.95079782       0.00000000 NULL
P        4.25708981       5.59882838       3.57877160       0.00000000 NULL
12
Lattice="4.620107159726375 0.0 0.0 0.0 6.7996104897309655 0.0 0.0 0.0 9.508195693229577" Properties=species:S:1:pos:R:3:initial_magmoms:R:1:castep_labels:S:1 n_minim_iter=5 pbc="T T T"
P        3.38580059       1.99999004       6.82994284       0.00000000 NULL
P        1.23430657       1.99999004       2.67825285       0.00000000 NULL
P        1.07574701       1.99999004       7.43235070       0.00000000 NULL
P        3.54436015       1.99999004       2.07584499       0.00000000 NULL
P        3.46543071       2.54563858       4.84627713       0.00000000 NULL
P        1.15467645       2.54563858       4.66191856       0.00000000 NULL
P        1.15537713       2.54563858       9.41601641       0.00000000 NULL
P        3.46473003       2.54563858       0.09217928       0.00000000 NULL
P        2.54983840       5.41688937       8.33643467       0.00000000 NULL
P        2.07026876       5.41688937       1.17176102       0.00000000 NULL
P        0.23978482       5.41688937       5.92585887       0.00000000 NULL
P        4.38032234       5.41688937       3.58233683       0.00000000 NULL
12
Lattice="4.629861127012724 0.0 0.0 0.0 6.570811861142993 0.0 0.0 0.0 9.4658500213032" Properties=species:S:1:pos:R:3:initial_magmoms:R:1:castep_labels:S:1 n_minim_iter=6 pbc="T T T"
P        3.39399391       1.93061369       6.81103767       0.00000000 NULL
P        1.23586721       1.93061369       2.65481235       0.00000000 NULL
P        1.07906335       1.93061369       7.38773736       0.00000000 NULL
P        3.55079778       1.93061369       2.07811266       0.00000000 NULL
P        3.47190329       2.46160436       4.81724366       0.00000000 NULL
P        1.15795783       2.46160436       4.64860637       0.00000000 NULL
P        1.15697273       2.46160436       9.38153138       0.00000000 NULL
P        3.47288840       2.46160436       0.08431864       0.00000000 NULL
P        2.55192773       5.23507332       8.31275004       0.00000000 NULL
P        2.07793340       5.23507332       1.15309998       0.00000000 NULL
P        0.23699717       5.23507332       5.88602499       0.00000000 NULL
P        4.39286396       5.23507332       3.57982503       0.00000000 NULL
12
Lattice="4.63641713706135 0.0 0.0 0.0 5.969300667102927 0.0 0.0 0.0 9.45901685151206" Properties=species:S:1:pos:R:3:initial_magmoms:R:1:castep_labels:S:1 n_minim_iter=7 pbc="T T T"
P        3.40123121       1.74874848       6.83730193       0.00000000 NULL
P        1.23518593       1.74874848       2.62171492       0.00000000 NULL
P        1.08302264       1.74874848       7.35122335       0.00000000 NULL
P        3.55339449       1.74874848       2.10779350       0.00000000 NULL
P        3.47543510       2.24142425       4.79280978       0.00000000 NULL
P        1.16098203       2.24142425       4.66620707       0.00000000 NULL
P        1.15722653       2.24142425       9.39571549       0.00000000 NULL
P        3.47919060       2.24142425       0.06330136       0.00000000 NULL
P        2.54802581       4.75580843       8.34522078       0.00000000 NULL
P        2.08839133       4.75580843       1.11379607       0.00000000 NULL
P        0.22981724       4.75580843       5.84330449       0.00000000 NULL
P        4.40659990       4.75580843       3.61571236       0.00000000 NULL
12
Lattice="4.6603798396298926 0.0 0.0 0.0 5.382025644287462 0.0 0.0 0.0 9.223130899265799" Properties=species:S:1:pos:R:3:initial_magmoms:R:1:castep_labels:S:1 n_minim_iter=8 pbc="T T T"
P        3.41975068       1.57309709       6.68845746       0.00000000 NULL
P        1.24062916       1.57309709       2.53467344       0.00000000 NULL
P        1.08956076       1.57309709       7.14623889       0.00000000 NULL
P        3.57081908       1.57309709       2.07689201       0.00000000 NULL
P        3.49537798       2.03010473       4.65895971       0.00000000 NULL
P        1.16500186       2.03010473       4.56417119       0.00000000 NULL
P        1.16518806       2.03010473       9.17573664       0.00000000 NULL
P        3.49519178       2.03010473       0.04739426       0.00000000 NULL
P        2.55889942       4.28232742       8.17436106       0.00000000 NULL
P        2.10148042       4.28232742       1.04876984       0.00000000 NULL
P        0.22870950       4.28232742       5.66033529       0.00000000 NULL
P        4.43167034       4.28232742       3.56279561       0.00000000 NULL
12
Lattice="4.6609117377540805 0.0 0.0 0.0 5.29711694464786 0.0 0.0 0.0 9.561653359854914" Properties=species:S:1:pos:R:3:initial_magmoms:R:1:castep_labels:S:1 n_minim_iter=9 pbc="T T T"
P        3.42012630       1.54711647       6.93949739       0.00000000 NULL
P        1.24078544       1.54711647       2.62215597       0.00000000 NULL
P        1.08967043       1.54711647       7.40298265       0.00000000 NULL
P        3.57124130       1.54711647       2.15867071       0.00000000 NULL
P        3.49569824       2.00042594       4.82569501       0.00000000 NULL
P        1.16521350       2.00042594       4.73595835       0.00000000 NULL
P        1.16524237       2.00042594       9.51678503       0.00000000 NULL
P        3.49566936       2.00042594       0.04486833       0.00000000 NULL
P        2.56038020       4.21358200       8.47685344       0.00000000 NULL
P        2.10053153       4.21358200       1.08479992       0.00000000 NULL
P        0.22992434       4.21358200       5.86562660       0.00000000 NULL
P        4.43098740       4.21358200       3.69602676       0.00000000 NULL
12
Lattice="4.669143977613283 0.0 0.0 0.0 5.213647769129105 0.0 0.0 0.0 9.48543106258138" Properties=species:S:1:pos:R:3:initial_magmoms:R:1:castep_labels:S:1 n_minim_iter=10 pbc="T T T"
P        3.42626188       1.52234561       6.88573571       0.00000000 NULL
P        1.24288210       1.52234561       2.59969535       0.00000000 NULL
P        1.09168989       1.52234561       7.34241089       0.00000000 NULL
P        3.57745409       1.52234561       2.14302018       0.00000000 NULL
P        3.50203506       1.97031247       4.78653858       0.00000000 NULL
P        1.16710892       1.97031247       4.69889248       0.00000000 NULL
P        1.16746307       1.97031247       9.44160801       0.00000000 NULL
P        3.50168091       1.97031247       0.04382305       0.00000000 NULL
P        2.56533531       4.14617063       8.41256128       0.00000000 NULL
P        2.10380867       4.14617063       1.07286979       0.00000000 NULL
P        0.23076332       4.14617063       5.81558532       0.00000000 NULL
P        4.43838065       4.14617063       3.66984575       0.00000000 NULL
12
Lattice="4.676262329503374 0.0 0.0 0.0 5.132121885690673 0.0 0.0 0.0 9.502956896319883" Properties=species:S:1:pos:R:3:initial_magmoms:R:1:castep_labels:S:1 n_minim_iter=11 pbc="T T T"
P        3.43160075       1.49802354       6.90070684       0.00000000 NULL
P        1.24466158       1.49802354       2.60225005       0.00000000 NULL
P        1.09346959       1.49802354       7.35372850       0.00000000 NULL
P        3.58279274       1.49802354       2.14922840       0.00000000 NULL
P        3.50742490       1.94109423       4.79409575       0.00000000 NULL
P        1.16883743       1.94109423       4.70886115       0.00000000 NULL
P        1.16929374       1.94109423       9.46033959       0.00000000 NULL
P        3.50696859       1.94109423       0.04261730       0.00000000 NULL
P        2.56991888       4.08026246       8.43099766       0.00000000 NULL
P        2.10634345       4.08026246       1.07195924       0.00000000 NULL
P        0.23178771       4.08026246       5.82343769       0.00000000 NULL
P        4.44447462       4.08026246       3.67951921       0.00000000 NULL
12
Lattice="4.801305612590207 0.0 0.0 0.0 4.0057117592693245 0.0 0.0 0.0 9.78760674742782" Properties=species:S:1:pos:R:3:initial_magmoms:R:1:castep_labels:S:1 n_minim_iter=12 pbc="T T T"
P        3.52567323       1.16305874       7.14281434       0.00000000 NULL
P        1.27563239       1.16305874       2.64479241       0.00000000 NULL
P        1.12502042       1.16305874       7.53859578       0.00000000 NULL
P        3.67628519       1.16305874       2.24901097       0.00000000 NULL
P        3.60093182       1.53470878       4.91744318       0.00000000 NULL
P        1.20037379       1.53470878       4.87016357       0.00000000 NULL
P        1.20027901       1.53470878       9.76396694       0.00000000 NULL
P        3.60102660       1.53470878       0.02363981       0.00000000 NULL
P        2.65006793       3.17124153       8.72726228       0.00000000 NULL
P        2.15123768       3.17124153       1.06034447       0.00000000 NULL
P        0.24941512       3.17124153       5.95414784       0.00000000 NULL
P        4.55189049       3.17124153       3.83345891       0.00000000 NULL
12
Lattice="5.145828599293369 0.0 0.0 0.0 4.476755330344493 0.0 0.0 0.0 10.80334335721554" Properties=species:S:1:pos:R:3:initial_magmoms:R:1:castep_labels:S:1 n_minim_iter=13 pbc="T T T"
P        3.77722894       1.29939054       7.88460778       0.00000000 NULL
P        1.36859966       1.29939054       2.91873558       0.00000000 NULL
P        1.20431464       1.29939054       8.32040726       0.00000000 NULL
P        3.94151396       1.29939054       2.48293610       0.00000000 NULL
P        3.84238796       1.71491910       5.43204263       0.00000000 NULL
P        1.30344064       1.71491910       5.37130073       0.00000000 NULL
P        1.26947366       1.71491910      10.77297241       0.00000000 NULL
P        3.87635494       1.71491910       0.03037095       0.00000000 NULL
P        2.84728106       3.54485366       9.62076221       0.00000000 NULL
P        2.29854754       3.54485366       1.18258115       0.00000000 NULL
P        0.27436676       3.54485366       6.58425283       0.00000000 NULL
P        4.87146184       3.54485366       4.21909053       0.00000000 NULL
12
Lattice="4.8601914056816025 0.0 0.0 0.0 4.271890661893892 0.0 0.0 0.0 9.959798058157439" Properties=species:S:1:pos:R:3:initial_magmoms:R:1:castep_labels:S:1 n_minim_iter=14 pbc="T T T"
P        3.56809859       1.24028216       7.26727710       0.00000000 NULL
P        1.29209282       1.24028216       2.69252095       0.00000000 NULL
P        1.13800289       1.24028216       7.67241998       0.00000000 NULL
P        3.72218852       1.24028216       2.28737808       0.00000000 NULL
P        3.63297148       1.63759860       5.01147156       0.00000000 NULL
P        1.22721992       1.63759860       4.94832650       0.00000000 NULL
P        1.20287578       1.63759860       9.92822553       0.00000000 NULL
P        3.65731563       1.63759860       0.03157253       0.00000000 NULL
P        2.68845683       3.38112301       8.87631351       0.00000000 NULL
P        2.17173458       3.38112301       1.08348455       0.00000000 NULL
P        0.25836112       3.38112301       6.06338358       0.00000000 NULL
P        4.60183028       3.38112301       3.89641448       0.00000000 NULL
