22
Lattice="7.310260000000003 -5.733537348122499e-32 -2.205745584986464e-16 5.521416892303007e-32 7.63359 2.1866990972136706e-48 -1.1438038111979885 8.97101042976381e-33 9.04498571153592" Properties=species:S:1:pos:R:3:initial_magmoms:R:1:castep_labels:S:1 n_minim_iter=1 pbc="T T T"
P        4.27178810       1.52150807       8.39480591       0.00000000 NULL
P        4.27178810       6.11208193       8.39480591       0.00000000 NULL
P        1.19922375       4.81861666       5.37422479       0.00000000 NULL
P        1.19922375       2.81497334       5.37422479       0.00000000 NULL
P        3.40112082       2.80028783       2.12299563       0.00000000 NULL
P        3.40112082       4.83330217       2.12299563       0.00000000 NULL
P        4.66325303       4.84195637       4.96150571       0.00000000 NULL
P        4.66325303       2.79163363       4.96150571       0.00000000 NULL
P        5.35009160       4.88435943       1.55872510       0.00000000 NULL
P        5.35009160       2.74923057       1.55872510       0.00000000 NULL
P        4.57867160       6.61037749       3.78733722       0.00000000 NULL
P        4.57867160       1.02321251       3.78733722       0.00000000 NULL
P        0.92186490       1.01438197       6.34584349       0.00000000 NULL
P        0.92186490       6.61920803       6.34584349       0.00000000 NULL
P        6.07439513       6.56546526       7.01766523       0.00000000 NULL
P        6.07439513       1.06812474       7.01766523       0.00000000 NULL
P        6.62118884       4.82070979       3.53749120       0.00000000 NULL
P        6.62118884       2.81288021       3.53749120       0.00000000 NULL
P        6.55098180       2.41429154       5.56691645       0.00000000 NULL
P        6.55098180       5.21929846       5.56691645       0.00000000 NULL
P        4.28778165       1.03019496       5.88953752       0.00000000 NULL
P        4.28778165       6.60339504       5.88953752       0.00000000 NULL
22
Lattice="7.348553016872165 -7.210483359342223e-20 -0.00027739405658002065 -7.52940027673631e-20 7.700153467491359 8.822349109408492e-18 -1.150138568637379 1.0464819724940318e-17 9.085244854372977" Properties=species:S:1:pos:R:3:initial_magmoms:R:1:castep_labels:S:1 n_minim_iter=2 pbc="T T T"
P        4.29379983       1.53469999       8.43189718       0.00000000 NULL
P        4.29379983       6.16545347       8.43189718       0.00000000 NULL
P        1.20567195       4.86073767       5.39793241       0.00000000 NULL
P        1.20567195       2.83941579       5.39793241       0.00000000 NULL
P        3.41855936       2.82443857       2.13237157       0.00000000 NULL
P        3.41855936       4.87571490       2.13237157       0.00000000 NULL
P        4.68721038       4.88407994       4.98334833       0.00000000 NULL
P        4.68721038       2.81607352       4.98334833       0.00000000 NULL
P        5.37833786       4.92708595       1.56529123       0.00000000 NULL
P        5.37833786       2.77306752       1.56529123       0.00000000 NULL
P        4.60243450       6.66800756       3.80373495       0.00000000 NULL
P        4.60243450       1.03214591       3.80373495       0.00000000 NULL
P        0.92656821       1.02326924       6.37418144       0.00000000 NULL
P        0.92656821       6.67688423       6.37418144       0.00000000 NULL
P        6.10597454       6.62269183       7.04900276       0.00000000 NULL
P        6.10597454       1.07746163       7.04900276       0.00000000 NULL
P        6.65588623       4.86297428       3.55272862       0.00000000 NULL
P        6.65588623       2.83717919       3.55272862       0.00000000 NULL
P        6.58518819       2.43539853       5.59149833       0.00000000 NULL
P        6.58518819       5.26475493       5.59149833       0.00000000 NULL
P        4.30967909       1.03916669       5.91581415       0.00000000 NULL
P        4.30967909       6.66098678       5.91581415       0.00000000 NULL
22
Lattice="7.773315953848572 -8.256460662685055e-20 -0.0021525898799289902 -8.548126344606798e-20 8.450140465241565 9.248913081506848e-18 -1.2189195128989767 1.1483590990482869e-17 9.525690051611496" Properties=species:S:1:pos:R:3:initial_magmoms:R:1:castep_labels:S:1 n_minim_iter=3 pbc="T T T"
P        4.53933088       1.68329657       8.83838908       0.00000000 NULL
P        4.53933088       6.76684390       8.83838908       0.00000000 NULL
P        1.27817887       5.33532480       5.65753523       0.00000000 NULL
P        1.27817887       3.11481567       5.65753523       0.00000000 NULL
P        3.61226772       3.09653743       2.23558483       0.00000000 NULL
P        3.61226772       5.35360304       2.23558483       0.00000000 NULL
P        4.95361020       5.35871737       5.22318565       0.00000000 NULL
P        4.95361020       3.09142309       5.22318565       0.00000000 NULL
P        5.69201250       5.40842220       1.63795605       0.00000000 NULL
P        5.69201250       3.04171826       1.63795605       0.00000000 NULL
P        4.86656543       7.31747088       3.98384851       0.00000000 NULL
P        4.86656543       1.13266958       3.98384851       0.00000000 NULL
P        0.97984216       1.12335420       6.68456377       0.00000000 NULL
P        0.97984216       7.32678627       6.68456377       0.00000000 NULL
P        6.45739231       7.26749889       7.39309028       0.00000000 NULL
P        6.45739231       1.18264157       7.39309028       0.00000000 NULL
P        7.04144350       5.33913326       3.72038150       0.00000000 NULL
P        7.04144350       3.11100720       3.72038150       0.00000000 NULL
P        6.96563905       2.67321964       5.86166272       0.00000000 NULL
P        6.96563905       5.77692083       5.86166272       0.00000000 NULL
P        4.55344721       1.14025933       6.20419445       0.00000000 NULL
P        4.55344721       7.30988113       6.20419445       0.00000000 NULL
22
Lattice="7.905575368134663 2.5164635040505448e-18 0.008380738528077128 2.7921206241547788e-18 8.786589416542853 3.226696066485886e-17 -1.226580665468368 3.736544982022312e-17 9.628508309562173" Properties=species:S:1:pos:R:3:initial_magmoms:R:1:castep_labels:S:1 n_minim_iter=4 pbc="T T T"
P        4.62890688       1.75010067       8.93992711       0.00000000 NULL
P        4.62890688       7.03648875       8.93992711       0.00000000 NULL
P        1.30948677       5.54811153       5.72034287       0.00000000 NULL
P        1.30948677       3.23847789       5.72034287       0.00000000 NULL
P        3.67632749       3.22061206       2.26551750       0.00000000 NULL
P        3.67632749       5.56597736       2.26551750       0.00000000 NULL
P        5.04310516       5.57179595       5.28706630       0.00000000 NULL
P        5.04310516       3.21479347       5.28706630       0.00000000 NULL
P        5.79212684       5.62260033       1.66299164       0.00000000 NULL
P        5.79212684       3.16398909       1.66299164       0.00000000 NULL
P        4.95428352       7.60968384       4.03322587       0.00000000 NULL
P        4.95428352       1.17690558       4.03322587       0.00000000 NULL
P        1.00634076       1.16775132       6.76038782       0.00000000 NULL
P        1.00634076       7.61883809       6.76038782       0.00000000 NULL
P        6.57706698       7.55637050       7.48504524       0.00000000 NULL
P        6.57706698       1.23021891       7.48504524       0.00000000 NULL
P        7.16698557       5.55122332       3.76888554       0.00000000 NULL
P        7.16698557       3.23536610       3.76888554       0.00000000 NULL
P        7.09342841       2.78066925       5.93609738       0.00000000 NULL
P        7.09342841       6.00592016       5.93609738       0.00000000 NULL
P        4.63727204       1.18498744       6.28006754       0.00000000 NULL
P        4.63727204       7.60160197       6.28006754       0.00000000 NULL
22
Lattice="7.924406383188775 2.634997655576443e-18 0.04001466408291922 2.9996761084001835e-18 8.981103830590474 3.213187580922459e-17 -1.190386410017028 3.817454515216707e-17 9.582171548875658" Properties=species:S:1:pos:R:3:initial_magmoms:R:1:castep_labels:S:1 n_minim_iter=5 pbc="T T T"
P        4.67695771       1.78875057       8.91796116       0.00000000 NULL
P        4.67695771       7.19235326       8.91796116       0.00000000 NULL
P        1.33702823       5.67112310       5.70015364       0.00000000 NULL
P        1.33702823       3.30998073       5.70015364       0.00000000 NULL
P        3.69505729       3.29502787       2.27091199       0.00000000 NULL
P        3.69505729       5.68607596       2.27091199       0.00000000 NULL
P        5.07494207       5.69528769       5.28406878       0.00000000 NULL
P        5.07494207       3.28581614       5.28406878       0.00000000 NULL
P        5.81290065       5.74418576       1.67866126       0.00000000 NULL
P        5.81290065       3.23691807       1.67866126       0.00000000 NULL
P        4.98193987       7.77952771       4.03563295       0.00000000 NULL
P        4.98193987       1.20157612       4.03563295       0.00000000 NULL
P        1.03661284       1.19320779       6.73643883       0.00000000 NULL
P        1.03661284       7.78789604       6.73643883       0.00000000 NULL
P        6.62252150       7.72315580       7.48115148       0.00000000 NULL
P        6.62252150       1.25794803       7.48115148       0.00000000 NULL
P        7.19932037       5.67200784       3.77955276       0.00000000 NULL
P        7.19932037       3.30909599       3.77955276       0.00000000 NULL
P        7.13573802       2.84357412       5.93969916       0.00000000 NULL
P        7.13573802       6.13752971       5.93969916       0.00000000 NULL
P        4.67183982       1.21014645       6.27305346       0.00000000 NULL
P        4.67183982       7.77095738       6.27305346       0.00000000 NULL
22
Lattice="7.899563002806124 2.68756287226762e-18 0.08175019216159472 3.2019869239603274e-18 9.045639181033891 3.183728127348855e-17 -1.1348599023005113 3.842585797512662e-17 9.488175404851324" Properties=species:S:1:pos:R:3:initial_magmoms:R:1:castep_labels:S:1 n_minim_iter=6 pbc="T T T"
P        4.71127563       1.80142139       8.85894611       0.00000000 NULL
P        4.71127563       7.24421779       8.85894611       0.00000000 NULL
P        1.36457304       5.71193795       5.65448213       0.00000000 NULL
P        1.36457304       3.33370123       5.65448213       0.00000000 NULL
P        3.69679454       3.32331818       2.27024228       0.00000000 NULL
P        3.69679454       5.72232100       2.27024228       0.00000000 NULL
P        5.08600707       5.73659565       5.26201940       0.00000000 NULL
P        5.08600707       3.30904354       5.26201940       0.00000000 NULL
P        5.80366251       5.78159606       1.69383114       0.00000000 NULL
P        5.80366251       3.26404312       1.69383114       0.00000000 NULL
P        4.98753842       7.83715656       4.02532809       0.00000000 NULL
P        4.98753842       1.20848262       4.02532809       0.00000000 NULL
P        1.07012693       1.20134539       6.68121237       0.00000000 NULL
P        1.07012693       7.84429379       6.68121237       0.00000000 NULL
P        6.64134999       7.77806337       7.44971156       0.00000000 NULL
P        6.64134999       1.26757581       7.44971156       0.00000000 NULL
P        7.19656094       5.70966916       3.78131846       0.00000000 NULL
P        7.19656094       3.33597002       3.78131846       0.00000000 NULL
P        7.14648126       2.86563845       5.92433677       0.00000000 NULL
P        7.14648126       6.18000073       5.92433677       0.00000000 NULL
P        4.68910973       1.21745658       6.24187026       0.00000000 NULL
P        4.68910973       7.82818260       6.24187026       0.00000000 NULL
22
Lattice="7.893110253352022 2.7508040438138828e-18 0.15822734544138065 3.560516828085841e-18 9.130032369330568 3.1552574009245826e-17 -1.0392250769874691 3.8745548344579065e-17 9.392179135040056" Properties=species:S:1:pos:R:3:initial_magmoms:R:1:castep_labels:S:1 n_minim_iter=7 pbc="T T T"
P        4.79682466       1.81766099       8.82144871       0.00000000 NULL
P        4.79682466       7.31237138       8.82144871       0.00000000 NULL
P        1.42184925       5.76516301       5.61629972       0.00000000 NULL
P        1.42184925       3.36486936       5.61629972       0.00000000 NULL
P        3.71755538       3.36366155       2.28718301       0.00000000 NULL
P        3.71755538       5.76637082       2.28718301       0.00000000 NULL
P        5.13105983       5.79073482       5.26334465       0.00000000 NULL
P        5.13105983       3.33929755       5.26334465       0.00000000 NULL
P        5.81590176       5.82792531       1.73446509       0.00000000 NULL
P        5.81590176       3.30210706       1.73446509       0.00000000 NULL
P        5.02230250       7.91391602       4.03775375       0.00000000 NULL
P        5.02230250       1.21611635       4.03775375       0.00000000 NULL
P        1.13687558       1.21159482       6.63334244       0.00000000 NULL
P        1.13687558       7.91843755       6.63334244       0.00000000 NULL
P        6.70841105       7.84948088       7.45132391       0.00000000 NULL
P        6.70841105       1.28055148       7.45132391       0.00000000 NULL
P        7.22670960       5.75672542       3.81385898       0.00000000 NULL
P        7.22670960       3.37330695       3.81385898       0.00000000 NULL
P        7.20100987       2.89568690       5.94388346       0.00000000 NULL
P        7.20100987       6.23434547       5.94388346       0.00000000 NULL
P        4.74343645       1.22582705       6.23487048       0.00000000 NULL
P        4.74343645       7.90420532       6.23487048       0.00000000 NULL
22
Lattice="7.9029952184123635 2.7536256563317538e-18 0.23903001921788156 3.900346823665882e-18 9.1365332287623 3.147162176155343e-17 -0.940794573961206 3.87337827433383e-17 9.357490465552445" Properties=species:S:1:pos:R:3:initial_magmoms:R:1:castep_labels:S:1 n_minim_iter=8 pbc="T T T"
P        4.89674024       1.81809539       8.84371529       0.00000000 NULL
P        4.89674024       7.31843784       8.84371529       0.00000000 NULL
P        1.48533607       5.76909206       5.61601949       0.00000000 NULL
P        1.48533607       3.36744117       5.61601949       0.00000000 NULL
P        3.74656915       3.37677610       2.32098537       0.00000000 NULL
P        3.74656915       5.75975713       2.32098537       0.00000000 NULL
P        5.18973786       5.79559711       5.30130863       0.00000000 NULL
P        5.18973786       3.34093612       5.30130863       0.00000000 NULL
P        5.84175245       5.82362712       1.78858321       0.00000000 NULL
P        5.84175245       3.31290611       1.78858321       0.00000000 NULL
P        5.06958476       7.92392736       4.07818648       0.00000000 NULL
P        5.06958476       1.21260586       4.07818648       0.00000000 NULL
P        1.21003020       1.21132555       6.62942445       0.00000000 NULL
P        1.21003020       7.92520768       6.62942445       0.00000000 NULL
P        6.79308725       7.85377003       7.50451266       0.00000000 NULL
P        6.79308725       1.28276320       7.50451266       0.00000000 NULL
P        7.27298959       5.75386562       3.87385542       0.00000000 NULL
P        7.27298959       3.38266761       3.87385542       0.00000000 NULL
P        7.27314711       2.90164308       6.00624483       0.00000000 NULL
P        7.27314711       6.23489015       6.00624483       0.00000000 NULL
P        4.81079611       1.22315283       6.27164278       0.00000000 NULL
P        4.81079611       7.91338040       6.27164278       0.00000000 NULL
22
Lattice="7.93045311165419 2.7780201862715863e-18 0.351532216362857 4.390374746664435e-18 9.179756756065172 3.145482797834216e-17 -0.8058918040521702 3.885786284585801e-17 9.338748401516021" Properties=species:S:1:pos:R:3:initial_magmoms:R:1:castep_labels:S:1 n_minim_iter=9 pbc="T T T"
P        5.04342750       1.82547145       8.90197343       0.00000000 NULL
P        5.04342750       7.35428531       8.90197343       0.00000000 NULL
P        1.57631753       5.79621271       5.63359982       0.00000000 NULL
P        1.57631753       3.38354405       5.63359982       0.00000000 NULL
P        3.79246654       3.40776353       2.37513122       0.00000000 NULL
P        3.79246654       5.77199322       2.37513122       0.00000000 NULL
P        5.28091801       5.82414522       5.37049191       0.00000000 NULL
P        5.28091801       3.35561154       5.37049191       0.00000000 NULL
P        5.88871938       5.83931199       1.86878617       0.00000000 NULL
P        5.88871938       3.34044477       1.86878617       0.00000000 NULL
P        5.14398462       7.96799210       4.14654798       0.00000000 NULL
P        5.14398462       1.21176466       4.14654798       0.00000000 NULL
P        1.31429628       1.21530449       6.64496961       0.00000000 NULL
P        1.31429628       7.96445227       6.64496961       0.00000000 NULL
P        6.92214543       7.88910384       7.60105507       0.00000000 NULL
P        6.92214543       1.29065292       7.60105507       0.00000000 NULL
P        7.34862797       5.77169896       3.96859382       0.00000000 NULL
P        7.34862797       3.40805779       3.96859382       0.00000000 NULL
P        7.38548759       2.92160407       6.11108778       0.00000000 NULL
P        7.38548759       6.25815268       6.11108778       0.00000000 NULL
P        4.91298523       1.22370843       6.34284619       0.00000000 NULL
P        4.91298523       7.95604833       6.34284619       0.00000000 NULL
22
Lattice="7.907274897037286 2.763068386347573e-18 0.41162877293107786 4.624936621222378e-18 9.148732330830276 3.129033425059267e-17 -0.7279077343080507 3.868970527721322e-17 9.283975167034935" Properties=species:S:1:pos:R:3:initial_magmoms:R:1:castep_labels:S:1 n_minim_iter=10 pbc="T T T"
P        5.09940324       1.81860837       8.89112227       0.00000000 NULL
P        5.09940324       7.33012396       8.89112227       0.00000000 NULL
P        1.61889137       5.77667907       5.61687181       0.00000000 NULL
P        1.61889137       3.37205326       5.61687181       0.00000000 NULL
P        3.79904068       3.40543231       2.39365268       0.00000000 NULL
P        3.79904068       5.74330002       2.39365268       0.00000000 NULL
P        5.30621914       5.80531053       5.38287980       0.00000000 NULL
P        5.30621914       3.34342180       5.38287980       0.00000000 NULL
P        5.88669117       5.81230687       1.90374880       0.00000000 NULL
P        5.88669117       3.33642546       1.90374880       0.00000000 NULL
P        5.16030994       7.94531361       4.16465562       0.00000000 NULL
P        5.16030994       1.20341872       4.16465562       0.00000000 NULL
P        1.36545489       1.21004909       6.62189677       0.00000000 NULL
P        1.36545489       7.93868324       6.62189677       0.00000000 NULL
P        6.95943969       7.86134096       7.61741588       0.00000000 NULL
P        6.95943969       1.28739137       7.61741588       0.00000000 NULL
P        7.35339896       5.74676871       4.00142972       0.00000000 NULL
P        7.35339896       3.40196362       4.00142972       0.00000000 NULL
P        7.41135453       2.91599530       6.13938712       0.00000000 NULL
P        7.41135453       6.23273703       6.13938712       0.00000000 NULL
P        4.94573955       1.21630691       6.35230723       0.00000000 NULL
P        4.94573955       7.93242542       6.35230723       0.00000000 NULL
22
Lattice="7.932059776220816 2.783209588518529e-18 0.43428255270488214 4.7385134268249745e-18 9.185647137856556 3.1343019367051857e-17 -0.7037561890694213 3.883263258861335e-17 9.297291266621547" Properties=species:S:1:pos:R:3:initial_magmoms:R:1:castep_labels:S:1 n_minim_iter=11 pbc="T T T"
P        5.13991081       1.82568163       8.91835527       0.00000000 NULL
P        5.13991081       7.35996551       8.91835527       0.00000000 NULL
P        1.64084393       5.79995873       5.63078508       0.00000000 NULL
P        1.64084393       3.38568841       5.63078508       0.00000000 NULL
P        3.81668563       3.42262947       2.40869545       0.00000000 NULL
P        3.81668563       5.76301767       2.40869545       0.00000000 NULL
P        5.33696613       5.82893422       5.40617985       0.00000000 NULL
P        5.33696613       3.35671292       5.40617985       0.00000000 NULL
P        5.91095769       5.83294929       1.92260464       0.00000000 NULL
P        5.91095769       3.35269784       1.92260464       0.00000000 NULL
P        5.18741399       7.97919958       4.18540791       0.00000000 NULL
P        5.18741399       1.20644756       4.18540791       0.00000000 NULL
P        1.38928879       1.21438888       6.63718768       0.00000000 NULL
P        1.38928879       7.97125826       6.63718768       0.00000000 NULL
P        7.00136258       7.89266068       7.65006489       0.00000000 NULL
P        7.00136258       1.29298646       7.65006489       0.00000000 NULL
P        7.38538538       5.76797833       4.02670555       0.00000000 NULL
P        7.38538538       3.41766881       4.02670555       0.00000000 NULL
P        7.45117540       2.92965168       6.17114498       0.00000000 NULL
P        7.45117540       6.25599545       6.17114498       0.00000000 NULL
P        4.97749011       1.21977005       6.37843597       0.00000000 NULL
P        4.97749011       7.96587709       6.37843597       0.00000000 NULL
22
Lattice="7.934538183372878 2.782866096481488e-18 0.456302538905233 4.830121746092856e-18 9.186724286862697 3.1319702006602276e-17 -0.6768986424152441 3.882331621757773e-17 9.288380944695147" Properties=species:S:1:pos:R:3:initial_magmoms:R:1:castep_labels:S:1 n_minim_iter=12 pbc="T T T"
P        5.16665752       1.82564154       8.92466327       0.00000000 NULL
P        5.16665752       7.36108275       8.92466327       0.00000000 NULL
P        1.65839631       5.80066731       5.63139154       0.00000000 NULL
P        1.65839631       3.38605698       5.63139154       0.00000000 NULL
P        3.82396427       3.42636205       2.41812293       0.00000000 NULL
P        3.82396427       5.76036224       2.41812293       0.00000000 NULL
P        5.35328329       5.82986801       5.41686400       0.00000000 NULL
P        5.35328329       3.35685628       5.41686400       0.00000000 NULL
P        5.91849893       5.83093216       1.93725976       0.00000000 NULL
P        5.91849893       3.35579212       1.93725976       0.00000000 NULL
P        5.20028445       7.98184166       4.19663066       0.00000000 NULL
P        5.20028445       1.20488262       4.19663066       0.00000000 NULL
P        1.40958491       1.21404112       6.63663629       0.00000000 NULL
P        1.40958491       7.97268316       6.63663629       0.00000000 NULL
P        7.02418286       7.89319802       7.66463691       0.00000000 NULL
P        7.02418286       1.29352626       7.66463691       0.00000000 NULL
P        7.39681514       5.76676757       4.04295710       0.00000000 NULL
P        7.39681514       3.41995672       4.04295710       0.00000000 NULL
P        7.47046846       2.93176327       6.18839864       0.00000000 NULL
P        7.47046846       6.25496102       6.18839864       0.00000000 NULL
P        4.99592769       1.21860144       6.38938881       0.00000000 NULL
P        4.99592769       7.96812285       6.38938881       0.00000000 NULL
22
Lattice="7.948237717149007 2.7864139089395075e-18 0.5204061791816282 5.101350402011204e-18 9.198828170474833 3.127274248452641e-17 -0.599726704424987 3.88336586512831e-17 9.26881861804658" Properties=species:S:1:pos:R:3:initial_magmoms:R:1:castep_labels:S:1 n_minim_iter=13 pbc="T T T"
P        5.24813190       1.82732337       8.94894346       0.00000000 NULL
P        5.24813190       7.37150480       8.94894346       0.00000000 NULL
P        1.71062433       5.80841183       5.63704233       0.00000000 NULL
P        1.71062433       3.39041634       5.63704233       0.00000000 NULL
P        3.84804794       3.44042267       2.44704819       0.00000000 NULL
P        3.84804794       5.75840550       2.44704819       0.00000000 NULL
P        5.40496753       5.83822325       5.45149490       0.00000000 NULL
P        5.40496753       3.36060492       5.45149490       0.00000000 NULL
P        5.94531537       5.83080625       1.98101166       0.00000000 NULL
P        5.94531537       3.36802192       1.98101166       0.00000000 NULL
P        5.24181295       7.99738101       4.23193181       0.00000000 NULL
P        5.24181295       1.20144716       4.23193181       0.00000000 NULL
P        1.46959780       1.21417710       6.63957681       0.00000000 NULL
P        1.46959780       7.98465107       6.63957681       0.00000000 NULL
P        7.09607629       7.90249984       7.71189970       0.00000000 NULL
P        7.09607629       1.29632833       7.71189970       0.00000000 NULL
P        7.43576471       5.76902121       4.09269307       0.00000000 NULL
P        7.43576471       3.42980696       4.09269307       0.00000000 NULL
P        7.53245785       2.94088625       6.24251760       0.00000000 NULL
P        7.53245785       6.25794192       6.24251760       0.00000000 NULL
P        5.05348116       1.21634759       6.42550732       0.00000000 NULL
P        5.05348116       7.98248058       6.42550732       0.00000000 NULL
22
Lattice="8.060581068732114 2.784795786507158e-18 0.9329406062747713 6.8312006784528215e-18 9.268397602445523 3.1011071259688077e-17 -0.10687566426080321 3.8853664409331324e-17 9.15903643550522" Properties=species:S:1:pos:R:3:initial_magmoms:R:1:castep_labels:S:1 n_minim_iter=14 pbc="T T T"
P        5.78245298       1.83680597       9.12054939       0.00000000 NULL
P        5.78245298       7.43159163       9.12054939       0.00000000 NULL
P        2.05105878       5.85364110       5.68537953       0.00000000 NULL
P        2.05105878       3.41475650       5.68537953       0.00000000 NULL
P        4.01335552       3.52545667       2.63612199       0.00000000 NULL
P        4.01335552       5.74294093       2.63612199       0.00000000 NULL
P        5.75436126       5.88599287       5.68382647       0.00000000 NULL
P        5.75436126       3.38240474       5.68382647       0.00000000 NULL
P        6.13628223       5.82529387       2.26624383       0.00000000 NULL
P        6.13628223       3.44310374       2.26624383       0.00000000 NULL
P        5.52426850       8.09104051       4.46604769       0.00000000 NULL
P        5.52426850       1.17735709       4.46604769       0.00000000 NULL
P        1.86050234       1.21341209       6.67123110       0.00000000 NULL
P        1.86050234       8.05498551       6.67123110       0.00000000 NULL
P        7.58058363       7.95579954       8.02567648       0.00000000 NULL
P        7.58058363       1.31259806       8.02567648       0.00000000 NULL
P        7.70359454       5.78075105       4.41801685       0.00000000 NULL
P        7.70359454       3.48764655       4.41801685       0.00000000 NULL
P        7.95376693       2.99888338       6.59955821       0.00000000 NULL
P        7.95376693       6.26951422       6.59955821       0.00000000 NULL
P        5.44126349       1.20021178       6.66842467       0.00000000 NULL
P        5.44126349       8.06818582       6.66842467       0.00000000 NULL
22
Lattice="8.301224963920305 2.619220466916258e-18 0.9756501862490676 6.90476666340256e-18 9.281635493940879 3.0199004240516863e-17 -0.0916835731237671 3.891755400232443e-17 8.912417686017825" Properties=species:S:1:pos:R:3:initial_magmoms:R:1:castep_labels:S:1 n_minim_iter=15 pbc="T T T"
P        5.94543115       1.84082592       8.90290460       0.00000000 NULL
P        5.94543115       7.44080957       8.90290460       0.00000000 NULL
P        2.13196519       5.86824521       5.55911327       0.00000000 NULL
P        2.13196519       3.41339028       5.55911327       0.00000000 NULL
P        4.12639166       3.55565846       2.60380194       0.00000000 NULL
P        4.12639166       5.72597703       2.60380194       0.00000000 NULL
P        5.93931765       5.89156881       5.58106844       0.00000000 NULL
P        5.93931765       3.39006668       5.58106844       0.00000000 NULL
P        6.34494636       5.79546760       2.24567909       0.00000000 NULL
P        6.34494636       3.48616789       2.24567909       0.00000000 NULL
P        5.69699868       8.13318630       4.38859807       0.00000000 NULL
P        5.69699868       1.14844920       4.38859807       0.00000000 NULL
P        1.94500501       1.20502603       6.52012069       0.00000000 NULL
P        1.94500501       8.07660946       6.52012069       0.00000000 NULL
P        7.83720216       7.96922901       7.86660918       0.00000000 NULL
P        7.83720216       1.31240649       7.86660918       0.00000000 NULL
P        7.90693006       5.78090526       4.34208332       0.00000000 NULL
P        7.90693006       3.50073023       4.34208332       0.00000000 NULL
P        8.21136186       3.04595301       6.49511543       0.00000000 NULL
P        8.21136186       6.23568249       6.49511543       0.00000000 NULL
P        5.61215906       1.17765111       6.56871899       0.00000000 NULL
P        5.61215906       8.10398439       6.56871899       0.00000000 NULL
22
Lattice="8.01839808864717 2.87575775620309e-18 1.0202608102733484 7.264031008686642e-18 9.326379312392538 3.049890422484219e-17 0.007765819200027803 3.9023472681066234e-17 9.002794758187541" Properties=species:S:1:pos:R:3:initial_magmoms:R:1:castep_labels:S:1 n_minim_iter=16 pbc="T T T"
P        5.83013271       1.84848262       9.01545653       0.00000000 NULL
P        5.83013271       7.47789670       9.01545653       0.00000000 NULL
P        2.11499952       5.89798847       5.62492270       0.00000000 NULL
P        2.11499952       3.42839085       5.62492270       0.00000000 NULL
P        4.01105454       3.57347793       2.64834603       0.00000000 NULL
P        4.01105454       5.75290138       2.64834603       0.00000000 NULL
P        5.79115676       5.91885400       5.66337791       0.00000000 NULL
P        5.79115676       3.40752531       5.66337791       0.00000000 NULL
P        6.14358254       5.82004510       2.29321699       0.00000000 NULL
P        6.14358254       3.50633421       2.29321699       0.00000000 NULL
P        5.54274602       8.17453442       4.45517541       0.00000000 NULL
P        5.54274602       1.15184490       4.45517541       0.00000000 NULL
P        1.94674948       1.21000796       6.59571198       0.00000000 NULL
P        1.94674948       8.11637135       6.59571198       0.00000000 NULL
P        7.64670578       8.00740580       7.97899328       0.00000000 NULL
P        7.64670578       1.31897352       7.97899328       0.00000000 NULL
P        7.67036128       5.80867942       4.41671970       0.00000000 NULL
P        7.67036128       3.51769989       4.41671970       0.00000000 NULL
P        7.99429739       3.06572135       6.59773828       0.00000000 NULL
P        7.99429739       6.26065796       6.59773828       0.00000000 NULL
P        5.48486310       1.18132404       6.66381987       0.00000000 NULL
P        5.48486310       8.14505527       6.66381987       0.00000000 NULL
22
Lattice="8.108464933959146 2.8476332739857835e-18 1.0156026243492327 7.234586423283229e-18 9.360607550161898 3.0637778129290605e-17 -0.012090112881144739 3.9177963231815593e-17 9.045070507931108" Properties=species:S:1:pos:R:3:initial_magmoms:R:1:castep_labels:S:1 n_minim_iter=17 pbc="T T T"
P        5.87477117       1.85494569       9.04928490       0.00000000 NULL
P        5.87477117       7.50566186       9.04928490       0.00000000 NULL
P        2.12842210       5.91986838       5.64979300       0.00000000 NULL
P        2.12842210       3.44073917       5.64979300       0.00000000 NULL
P        4.05045151       3.58697329       2.65644366       0.00000000 NULL
P        4.05045151       5.77363426       2.65644366       0.00000000 NULL
P        5.84473402       5.93924897       5.68353087       0.00000000 NULL
P        5.84473402       3.42135858       5.68353087       0.00000000 NULL
P        6.21101927       5.83952924       2.29578607       0.00000000 NULL
P        6.21101927       3.52107831       2.29578607       0.00000000 NULL
P        5.59658079       8.20680356       4.46905007       0.00000000 NULL
P        5.59658079       1.15380399       4.46905007       0.00000000 NULL
P        1.95620020       1.21356072       6.62538826       0.00000000 NULL
P        1.95620020       8.14704684       6.62538826       0.00000000 NULL
P        7.71847160       8.03677893       8.00641663       0.00000000 NULL
P        7.71847160       1.32382862       8.00641663       0.00000000 NULL
P        7.74702519       5.82976618       4.42648999       0.00000000 NULL
P        7.74702519       3.53084137       4.42648999       0.00000000 NULL
P        8.07171612       3.07965716       6.62018756       0.00000000 NULL
P        8.07171612       6.28095039       6.62018756       0.00000000 NULL
P        5.53290069       1.18360312       6.69117257       0.00000000 NULL
P        5.53290069       8.17700443       6.69117257       0.00000000 NULL
22
Lattice="8.087275621706393 2.8254963918538643e-18 1.0137168706748705 7.204401680658566e-18 9.328265832304492 3.057089797632408e-17 -0.01110795888507994 3.9043817934987374e-17 9.024734266710619" Properties=species:S:1:pos:R:3:initial_magmoms:R:1:castep_labels:S:1 n_minim_iter=18 pbc="T T T"
P        5.85905932       1.84812049       9.02789745       0.00000000 NULL
P        5.85905932       7.48014534       9.02789745       0.00000000 NULL
P        2.12380120       5.89974373       5.63769232       0.00000000 NULL
P        2.12380120       3.42852210       5.63769232       0.00000000 NULL
P        4.04018935       3.57516582       2.65099773       0.00000000 NULL
P        4.04018935       5.75310001       2.65099773       0.00000000 NULL
P        5.83010885       5.91791661       5.67128840       0.00000000 NULL
P        5.83010885       3.41034923       5.67128840       0.00000000 NULL
P        6.19547611       5.81781369       2.29030316       0.00000000 NULL
P        6.19547611       3.51045214       2.29030316       0.00000000 NULL
P        5.58239705       8.17994017       4.45922182       0.00000000 NULL
P        5.58239705       1.14832566       4.45922182       0.00000000 NULL
P        1.95242893       1.20885500       6.61111247       0.00000000 NULL
P        1.95242893       8.11941083       6.61111247       0.00000000 NULL
P        7.69973899       8.00881627       7.98812225       0.00000000 NULL
P        7.69973899       1.31944956       7.98812225       0.00000000 NULL
P        7.72560311       5.80933496       4.41585507       0.00000000 NULL
P        7.72560311       3.51893087       4.41585507       0.00000000 NULL
P        8.05148480       3.07086202       6.60622369       0.00000000 NULL
P        8.05148480       6.25740381       6.60622369       0.00000000 NULL
P        5.51903081       1.17826298       6.67802497       0.00000000 NULL
P        5.51903081       8.15000286       6.67802497       0.00000000 NULL
