7
Lattice="4.343099999999996 2.46698890104772e-16 -3.580721257768672e-16 0.37665845681104265 4.451402817428763 -9.059287702928081e-16 0.7865502764913695 0.6486800524743469 7.699774748164604" Properties=species:S:1:pos:R:3:initial_magmoms:R:1:castep_labels:S:1 n_minim_iter=1 pbc="T T T"
P        1.07555407       4.57741234       1.72715649       0.00000000 NULL
P        4.19084133       0.99574781       3.38888877       0.00000000 NULL
P        2.48957732       3.13393399       2.19345331       0.00000000 NULL
P        4.69989260       2.93865412       2.62780146       0.00000000 NULL
P        3.65499199       2.00129809       5.30386356       0.00000000 NULL
P        1.65935930       2.11209007       3.99474093       0.00000000 NULL
P        4.56831590       4.24906946       7.68883722       0.00000000 NULL
7
Lattice="4.34818455424915 -0.0018050207421274039 -9.334024268462227e-05 0.3752493863176244 4.45771608931876 -0.0008366756117574976 0.7870360303900069 0.6478627397178526 7.704405316664024" Properties=species:S:1:pos:R:3:initial_magmoms:R:1:castep_labels:S:1 n_minim_iter=2 pbc="T T T"
P        1.07489986       4.58347739       1.72680719       0.00000000 NULL
P        4.19516873       0.99479127       3.39091575       0.00000000 NULL
P        2.49134742       3.13701855       2.19402934       0.00000000 NULL
P        4.70385989       2.94033686       2.62877557       0.00000000 NULL
P        3.65832440       2.00173442       5.30678886       0.00000000 NULL
P        1.66045404       2.11369481       3.99701638       0.00000000 NULL
P        4.57173614       4.25193738       7.69287785       0.00000000 NULL
7
Lattice="4.568869305803786 -0.08256199000905307 -0.004256703493432212 0.3116176434244132 4.734083893857839 -0.03665833800942929 0.8075599092013298 0.6131940041679843 7.899311721624028" Properties=species:S:1:pos:R:3:initial_magmoms:R:1:castep_labels:S:1 n_minim_iter=3 pbc="T T T"
P        1.04382951       4.84926632       1.71056498       0.00000000 NULL
P        4.38228366       0.95192514       3.47625560       0.00000000 NULL
P        2.56656157       3.27145054       2.21749976       0.00000000 NULL
P        4.87422556       3.01268343       2.66921520       0.00000000 NULL
P        3.80166645       2.02043954       5.42963628       0.00000000 NULL
P        1.70682445       2.18389467       4.09279160       0.00000000 NULL
P        4.71763164       4.37717533       7.86270426       0.00000000 NULL
7
Lattice="4.629128358347081 -0.14397434337888712 -0.020213210105295892 0.2538998747625216 4.851738147818618 -0.025681107743906036 0.7810116600598291 0.6413747527622066 7.842207141003581" Properties=species:S:1:pos:R:3:initial_magmoms:R:1:castep_labels:S:1 n_minim_iter=4 pbc="T T T"
P        0.98795346       4.96575461       1.69010021       0.00000000 NULL
P        4.41291036       0.93149066       3.44580742       0.00000000 NULL
P        2.55221489       3.32903797       2.19549233       0.00000000 NULL
P        4.88226242       3.02920176       2.63993331       0.00000000 NULL
P        3.80333931       2.04009794       5.38235731       0.00000000 NULL
P        1.68830188       2.23081600       4.06840265       0.00000000 NULL
P        4.69413866       4.45210449       7.81418516       0.00000000 NULL
7
Lattice="4.642929146183753 -0.22364448179614402 -0.043659300739754145 0.17343990488702496 4.943422602468583 -0.00390295406697004 0.7300446013481311 0.6825015894552232 7.678793071308083" Properties=species:S:1:pos:R:3:initial_magmoms:R:1:castep_labels:S:1 n_minim_iter=5 pbc="T T T"
P        0.89808859       5.05474401       1.65326739       0.00000000 NULL
P        4.38907919       0.89870988       3.36463864       0.00000000 NULL
P        2.49408456       3.36485317       2.14515236       0.00000000 NULL
P        4.82230304       3.01511125       2.57329754       0.00000000 NULL
P        3.74727779       2.04714602       5.25892581       0.00000000 NULL
P        1.63739772       2.27036091       3.99140332       0.00000000 NULL
P        4.59148944       4.50498569       7.66731221       0.00000000 NULL
7
Lattice="4.738828802602209 -0.6258797561738882 -0.16461461313120307 -0.23050884532343255 5.379148159314252 0.06335545652378824 0.47289630689783635 0.8127194535565891 6.954781321854838" Properties=species:S:1:pos:R:3:initial_magmoms:R:1:castep_labels:S:1 n_minim_iter=6 pbc="T T T"
P        0.45539287       5.45378920       1.45982074       0.00000000 NULL
P        4.28365450       0.69549398       2.98182248       0.00000000 NULL
P        2.21536654       3.50633728       1.89022501       0.00000000 NULL
P        4.54614479       2.90185399       2.24418694       0.00000000 NULL
P        3.48140655       2.02110985       4.69406834       0.00000000 NULL
P        1.39486577       2.41555199       3.63674481       0.00000000 NULL
P        4.09323512       4.67846542       6.97970555       0.00000000 NULL
7
Lattice="4.922043865293873 -0.6661806020323461 -0.11755379788225352 -0.25592520599233803 5.5355250027024985 -0.04764572002297489 0.5834908546386656 0.6296551100599214 7.043098067829005" Properties=species:S:1:pos:R:3:initial_magmoms:R:1:castep_labels:S:1 n_minim_iter=7 pbc="T T T"
P        0.50693057       5.55901934       1.34745509       0.00000000 NULL
P        4.45877698       0.59414960       3.05526480       0.00000000 NULL
P        2.32376234       3.54462072       1.84209289       0.00000000 NULL
P        4.68322616       2.91536771       2.25298857       0.00000000 NULL
P        3.66863587       1.92314382       4.74500822       0.00000000 NULL
P        1.54967722       2.35468684       3.67928655       0.00000000 NULL
P        4.32750355       4.59683414       7.02692676       0.00000000 NULL
7
Lattice="4.740443819575351 -0.6666340749546426 -0.1351557683460754 -0.27213938103345786 5.387729580522786 0.014820008434651222 0.51932863578461 0.7187313161749259 6.851964537316761" Properties=species:S:1:pos:R:3:initial_magmoms:R:1:castep_labels:S:1 n_minim_iter=8 pbc="T T T"
P        0.45416697       5.42283827       1.36734444       0.00000000 NULL
P        4.27160419       0.61739279       2.96465392       0.00000000 NULL
P        2.21361328       3.46538923       1.82280257       0.00000000 NULL
P        4.47248343       2.85909759       2.20793398       0.00000000 NULL
P        3.49153772       1.93394097       4.62044177       0.00000000 NULL
P        1.46403107       2.34272419       3.59823907       0.00000000 NULL
P        4.10581339       4.56703474       6.87488364       0.00000000 NULL
7
Lattice="4.770571965885235 -0.6792608330432713 -0.1411585604559301 -0.2824681244275926 5.397670150513765 0.024169007571872285 0.51225682730789 0.7351245792492727 6.875239989960448" Properties=species:S:1:pos:R:3:initial_magmoms:R:1:castep_labels:S:1 n_minim_iter=9 pbc="T T T"
P        0.45101977       5.43375075       1.37803232       0.00000000 NULL
P        4.29160969       0.61445810       2.97214488       0.00000000 NULL
P        2.21997960       3.46995606       1.83147272       0.00000000 NULL
P        4.48399628       2.86122089       2.21597164       0.00000000 NULL
P        3.50201167       1.94189793       4.63638877       0.00000000 NULL
P        1.46973311       2.35027874       3.61522055       0.00000000 NULL
P        4.11447862       4.58121045       6.90071768       0.00000000 NULL
7
Lattice="4.7751854373643985 -0.6850973457244642 -0.1457375574456482 -0.2880500741743457 5.391601893363864 0.036715309933447134 0.5041026177621412 0.7556457983691781 6.87433689534746" Properties=species:S:1:pos:R:3:initial_magmoms:R:1:castep_labels:S:1 n_minim_iter=10 pbc="T T T"
P        0.44854339       5.43019283       1.38743988       0.00000000 NULL
P        4.29009419       0.61781734       2.97075212       0.00000000 NULL
P        2.21754073       3.46781861       1.83631149       0.00000000 NULL
P        4.47348158       2.86152721       2.21896415       0.00000000 NULL
P        3.49630842       1.95107616       4.63698420       0.00000000 NULL
P        1.46957669       2.35554832       3.62079819       0.00000000 NULL
P        4.10573756       4.59206165       6.90647110       0.00000000 NULL
7
Lattice="4.793601805294189 -0.6955825434730958 -0.15417385781098697 -0.2971995660292566 5.380530866655433 0.05808138627241644 0.4909153202420275 0.7904894193629698 6.874216528342667" Properties=species:S:1:pos:R:3:initial_magmoms:R:1:castep_labels:S:1 n_minim_iter=11 pbc="T T T"
P        0.44929965       5.42333318       1.40200834       0.00000000 NULL
P        4.29631943       0.62322337       2.96958956       0.00000000 NULL
P        2.21976435       3.46307509       1.84357700       0.00000000 NULL
P        4.45842501       2.86309164       2.22420691       0.00000000 NULL
P        3.49438948       1.96582343       4.63816219       0.00000000 NULL
P        1.47639140       2.36258331       3.63263984       0.00000000 NULL
P        4.10081248       4.60896735       6.91713190       0.00000000 NULL
7
Lattice="4.8122764151736135 -0.7030370951310991 -0.16313445516353145 -0.30322044109876156 5.347374272552795 0.07654130189210542 0.4772979315979141 0.8176769284572616 6.8425308954803095" Properties=species:S:1:pos:R:3:initial_magmoms:R:1:castep_labels:S:1 n_minim_iter=12 pbc="T T T"
P        0.46049897       5.39354571       1.40321721       0.00000000 NULL
P        4.30206362       0.62643753       2.95680111       0.00000000 NULL
P        2.22661956       3.44239785       1.83713837       0.00000000 NULL
P        4.42414935       2.85709339       2.21731237       0.00000000 NULL
P        3.49481407       1.96764949       4.61425218       0.00000000 NULL
P        1.49256079       2.35410640       3.63078093       0.00000000 NULL
P        4.10085452       4.60075525       6.89326481       0.00000000 NULL
7
Lattice="4.893931422295639 -0.7272989493927611 -0.17448660063010238 -0.3210057183069614 5.364883884575445 0.08148387097415156 0.46833627391841237 0.8263935680633616 6.8531572929413604" Properties=species:S:1:pos:R:3:initial_magmoms:R:1:castep_labels:S:1 n_minim_iter=13 pbc="T T T"
P        0.46814042       5.40919140       1.40042585       0.00000000 NULL
P        4.36520197       0.61332227       2.95823245       0.00000000 NULL
P        2.25249210       3.44604164       1.83287815       0.00000000 NULL
P        4.44802031       2.85707544       2.21454448       0.00000000 NULL
P        3.54003565       1.96218288       4.61486600       0.00000000 NULL
P        1.51751732       2.35316266       3.64388835       0.00000000 NULL
P        4.14799314       4.60023023       6.89751111       0.00000000 NULL
7
Lattice="4.8502366999977715 -0.722582753304541 -0.17634690529890845 -0.3199613716690392 5.32892744156418 0.09307547838286222 0.45782932715426256 0.8422778865732097 6.799760145070371" Properties=species:S:1:pos:R:3:initial_magmoms:R:1:castep_labels:S:1 n_minim_iter=14 pbc="T T T"
P        0.46270301       5.37618498       1.39990233       0.00000000 NULL
P        4.32337575       0.62092317       2.93566575       0.00000000 NULL
P        2.23034125       3.42828480       1.82437676       0.00000000 NULL
P        4.39716519       2.84700255       2.20175148       0.00000000 NULL
P        3.50376799       1.96311610       4.57970906       0.00000000 NULL
P        1.50243020       2.34783091       3.62077586       0.00000000 NULL
P        4.10506995       4.58975454       6.85189279       0.00000000 NULL
