12
Lattice="6.647259999999998 -1.9844434788997367e-17 0.0 -3.3236299999999996 5.756696025560148 0.0 0.0 0.0 7.07463" Properties=species:S:1:pos:R:3:initial_magmoms:R:1:castep_labels:S:1 n_minim_iter=1 pbc="T T T"
P        3.99399387       4.01824003       3.90021098       0.00000000 NULL
P        1.17036512       1.44978014       1.54200098       0.00000000 NULL
P        4.80653101       0.28867586       6.25842098       0.00000000 NULL
P        2.51071231       4.32198634       5.85976463       0.00000000 NULL
P        1.64895388       0.01334747       3.50155463       0.00000000 NULL
P        5.81122381       1.42136221       1.14334463       0.00000000 NULL
P       -0.54641973       1.29928802       5.08484291       0.00000000 NULL
P        2.47162343       4.63383865       2.72663291       0.00000000 NULL
P       -1.92520370       5.58026538       0.36842291       0.00000000 NULL
P        1.29971349       3.14722717       7.02274820       0.00000000 NULL
P       -0.05180543       5.30866734       4.66453820       0.00000000 NULL
P       -1.24790807       3.05749754       2.30632820       0.00000000 NULL
12
Lattice="6.655795917999283 -8.032749029570434e-16 0.0 -3.327897958999641 5.764088347392149 0.0 0.0 0.0 7.081473300486522" Properties=species:S:1:pos:R:3:initial_magmoms:R:1:castep_labels:S:1 n_minim_iter=2 pbc="T T T"
P        3.99911673       4.02313764       3.90405158       0.00000000 NULL
P        1.17209816       1.45176787       1.54356048       0.00000000 NULL
P        4.81247899       0.28918285       6.26454268       0.00000000 NULL
P        2.51413407       4.32745586       5.86544924       0.00000000 NULL
P        1.65104217       0.01357604       3.50495814       0.00000000 NULL
P        5.81851764       1.42305644       1.14446704       0.00000000 NULL
P       -0.54699144       1.30108863       5.08965077       0.00000000 NULL
P        2.47461787       4.63983555       2.72915967       0.00000000 NULL
P       -1.92762643       5.58725252       0.36866857       0.00000000 NULL
P        1.30127170       3.15120560       7.02956766       0.00000000 NULL
P       -0.05176199       5.31541990       4.66907656       0.00000000 NULL
P       -1.24950971       3.06155120       2.30858545       0.00000000 NULL
12
Lattice="6.90704641671018 1.182652082827695e-15 -1.3554019465373294e-58 -3.4535232083550915 5.981677661989294 -6.997126268059519e-43 -5.5220469272203256e-58 -1.914423324079301e-42 7.282434739108439" Properties=species:S:1:pos:R:3:initial_magmoms:R:1:castep_labels:S:1 n_minim_iter=3 pbc="T T T"
P        4.14987558       4.16707868       4.01680350       0.00000000 NULL
P        1.22331263       1.51035834       1.58932525       0.00000000 NULL
P        4.98738141       0.30424065       6.44428174       0.00000000 NULL
P        2.61502389       4.48841428       6.03247686       0.00000000 NULL
P        1.71245369       0.02046998       3.60499861       0.00000000 NULL
P        6.03309205       1.47279341       1.17752036       0.00000000 NULL
P       -0.56371882       1.35418481       5.23077731       0.00000000 NULL
P        2.56262417       4.81639043       2.80329906       0.00000000 NULL
P       -1.99890535       5.79278008       0.37582081       0.00000000 NULL
P        1.34701400       3.26825916       7.22983014       0.00000000 NULL
P       -0.05037926       5.51409642       4.80235190       0.00000000 NULL
P       -1.29663475       3.18099974       2.37487365       0.00000000 NULL
12
Lattice="6.96709322100429 -7.494729286094875e-16 -1.2969930011148986e-44 -3.4835466105021444 6.033679719924066 -5.187571735058374e-41 -1.3674827585988096e-44 -5.809755121296811e-41 7.338525639469719" Properties=species:S:1:pos:R:3:initial_magmoms:R:1:castep_labels:S:1 n_minim_iter=4 pbc="T T T"
P        4.18508353       4.19976803       4.04646281       0.00000000 NULL
P        1.23744565       1.52450464       1.60028760       0.00000000 NULL
P        5.02811065       0.30940705       6.49263803       0.00000000 NULL
P        2.64064420       4.52721488       6.08161490       0.00000000 NULL
P        1.72608803       0.02325752       3.63543968       0.00000000 NULL
P        6.08390760       1.48320732       1.18926447       0.00000000 NULL
P       -0.56733838       1.36713917       5.26964689       0.00000000 NULL
P        2.58323855       4.85878069       2.82347168       0.00000000 NULL
P       -2.01590017       5.84143958       0.37729646       0.00000000 NULL
P        1.35624401       3.29606670       7.28553927       0.00000000 NULL
P       -0.04905289       5.56018814       4.83936406       0.00000000 NULL
P       -1.30719113       3.21110460       2.39318884       0.00000000 NULL
