13
Lattice="4.81797 8.646599804688077e-16 -2.577344515441452e-15 -2.1924459094517545 5.268326952318757 -9.501228078002444e-16 -1.117549613773979 -1.504304449153854 11.209270235417186" Properties=species:S:1:pos:R:3:initial_magmoms:R:1:castep_labels:S:1 n_minim_iter=1 pbc="T T T"
P       -1.16655544       0.98002276       9.20389256       0.00000000 NULL
P       -0.96939084       2.15383207       5.27857314       0.00000000 NULL
P        0.90998765      -0.04018585       0.70398028       0.00000000 NULL
P        0.33985960       1.43371762       3.69677361       0.00000000 NULL
P        1.76194351       1.53289841       9.67327739       0.00000000 NULL
P        0.60437227       0.06464249       8.92096161       0.00000000 NULL
P        2.65741435       0.86944652       1.31820794       0.00000000 NULL
P       -0.02725316       1.55783884       1.60946513       0.00000000 NULL
P       -1.80889505       3.77161848       7.67512184       0.00000000 NULL
P       -0.34663523       0.11177009       5.14211260       0.00000000 NULL
P       -1.32324007       3.19794387       2.16673400       0.00000000 NULL
P        4.44807869      -0.22908044       2.67491075       0.00000000 NULL
P        0.23261441       4.10482756       3.13167506       0.00000000 NULL
13
Lattice="4.827589923212499 -0.0007654188881737887 0.0003282323391076311 -2.1976604787111835 5.280244593637335 0.0027723164414440215 -1.1187783622806373 -1.5012140072197482 11.224408752875993" Properties=species:S:1:pos:R:3:initial_magmoms:R:1:castep_labels:S:1 n_minim_iter=2 pbc="T T T"
P       -1.16848494       0.98752855       9.21750231       0.00000000 NULL
P       -0.97137542       2.16168279       5.28727708       0.00000000 NULL
P        0.91183940      -0.04028832       0.70467043       0.00000000 NULL
P        0.34084617       1.43912075       3.70308004       0.00000000 NULL
P        1.76590685       1.54152687       9.68821809       0.00000000 NULL
P        0.60619944       0.06949814       8.93383125       0.00000000 NULL
P        2.66276062       0.87169860       1.32081142       0.00000000 NULL
P       -0.02741095       1.56238894       1.61236755       0.00000000 NULL
P       -1.81258131       3.78435771       7.68799745       0.00000000 NULL
P       -0.34702340       0.11473389       5.14968330       0.00000000 NULL
P       -1.32648310       3.20642084       2.17143630       0.00000000 NULL
P        4.45697378      -0.22906479       2.67896509       0.00000000 NULL
P        0.23281016       4.11562481       3.13864395       0.00000000 NULL
13
Lattice="5.055428889217914 -0.020525396233500408 0.007895020260393395 -2.3229469853224547 5.564365259156787 0.06983069239134891 -1.147852465274747 -1.4251857028163968 11.580150996952982" Properties=species:S:1:pos:R:3:initial_magmoms:R:1:castep_labels:S:1 n_minim_iter=3 pbc="T T T"
P       -1.21496402       1.16822847       9.53809164       0.00000000 NULL
P       -1.01935392       2.34962980       5.49280359       0.00000000 NULL
P        0.95571327      -0.04326249       0.72046092       0.00000000 NULL
P        0.36381413       1.56851632       3.85222431       0.00000000 NULL
P        1.85886063       1.74817632      10.04037299       0.00000000 NULL
P        0.64905483       0.18635669       9.23660564       0.00000000 NULL
P        2.78907372       0.92465544       1.38234680       0.00000000 NULL
P       -0.03171536       1.67097806       1.68103594       0.00000000 NULL
P       -1.90146219       4.08934747       7.99220162       0.00000000 NULL
P       -0.35651368       0.18629765       5.32795627       0.00000000 NULL
P       -1.40466037       3.40899922       2.28314218       0.00000000 NULL
P        4.66742725      -0.22977860       2.77413966       0.00000000 NULL
P        0.23601490       4.37306582       3.30413954       0.00000000 NULL
13
Lattice="5.1642438243778495 -0.046585988402726715 0.009243948237463249 -2.4009604597934806 5.650095868890925 0.09363293718663067 -1.1618173770093434 -1.3882845247225624 11.658230952754693" Properties=species:S:1:pos:R:3:initial_magmoms:R:1:castep_labels:S:1 n_minim_iter=4 pbc="T T T"
P       -1.24482258       1.23143314       9.61181674       0.00000000 NULL
P       -1.05087799       2.40587276       5.54134926       0.00000000 NULL
P        0.97766808      -0.05058098       0.71934294       0.00000000 NULL
P        0.37003029       1.60916035       3.89232693       0.00000000 NULL
P        1.89369762       1.80651136      10.12367274       0.00000000 NULL
P        0.66446602       0.22275212       9.30508851       0.00000000 NULL
P        2.84518181       0.92793504       1.39909801       0.00000000 NULL
P       -0.03934563       1.70364308       1.69499925       0.00000000 NULL
P       -1.96019050       4.18808130       8.06672769       0.00000000 NULL
P       -0.36511551       0.21345812       5.37045750       0.00000000 NULL
P       -1.45431931       3.47432406       2.31291373       0.00000000 NULL
P        4.76555094      -0.24850195       2.79625316       0.00000000 NULL
P        0.22095240       4.44555494       3.34941554       0.00000000 NULL
13
Lattice="5.214719546738404 -0.06725418132794796 0.014750594768683551 -2.446529877797267 5.650785711123395 0.10210385961845034 -1.1542607463944305 -1.3576469586083564 11.646298629881947" Properties=species:S:1:pos:R:3:initial_magmoms:R:1:castep_labels:S:1 n_minim_iter=5 pbc="T T T"
P       -1.25138430       1.25385585       9.60572477       0.00000000 NULL
P       -1.06269276       2.41141482       5.53876824       0.00000000 NULL
P        0.98983141      -0.05771255       0.71394168       0.00000000 NULL
P        0.37723516       1.61860352       3.89924700       0.00000000 NULL
P        1.91792575       1.81706500      10.12402632       0.00000000 NULL
P        0.67961666       0.23640502       9.30001512       0.00000000 NULL
P        2.87050035       0.91611376       1.40563538       0.00000000 NULL
P       -0.04373808       1.70745152       1.69106234       0.00000000 NULL
P       -1.98612946       4.20708859       8.06689431       0.00000000 NULL
P       -0.36546216       0.22714442       5.36978920       0.00000000 NULL
P       -1.48173616       3.48368170       2.31544240       0.00000000 NULL
P        4.81165180      -0.26522453       2.80089568       0.00000000 NULL
P        0.20916372       4.44619690       3.35768085       0.00000000 NULL
13
Lattice="5.250013399419885 -0.08885168583405098 0.023905955780356102 -2.4862068741323666 5.621292915582052 0.11027197458814518 -1.1344035230474612 -1.3151663658858928 11.606084275393064" Properties=species:S:1:pos:R:3:initial_magmoms:R:1:castep_labels:S:1 n_minim_iter=6 pbc="T T T"
P       -1.24766598       1.27285659       9.57658484       0.00000000 NULL
P       -1.06724597       2.40411442       5.52233800       0.00000000 NULL
P        1.00042136      -0.06557161       0.70638006       0.00000000 NULL
P        0.38764716       1.62245662       3.89925846       0.00000000 NULL
P        1.94457887       1.82071529      10.10286339       0.00000000 NULL
P        0.69868969       0.25185560       9.27407557       0.00000000 NULL
P        2.88773131       0.89795713       1.41213203       0.00000000 NULL
P       -0.04707600       1.70294309       1.68203088       0.00000000 NULL
P       -2.00115540       4.20694363       8.04808520       0.00000000 NULL
P       -0.36152786       0.24192293       5.35755110       0.00000000 NULL
P       -1.50435877       3.47677326       2.31227381       0.00000000 NULL
P        4.84481215      -0.28165802       2.80298432       0.00000000 NULL
P        0.19767944       4.42462403       3.35961153       0.00000000 NULL
13
Lattice="5.322238168787279 -0.13544457897677398 0.047921559613147195 -2.5700213218958337 5.553927609348604 0.14046729964229465 -1.080735167584353 -1.1915716717285618 11.525181149576053" Properties=species:S:1:pos:R:3:initial_magmoms:R:1:castep_labels:S:1 n_minim_iter=7 pbc="T T T"
P       -1.23094775       1.33821709       9.52397789       0.00000000 NULL
P       -1.07114921       2.40096623       5.49623401       0.00000000 NULL
P        1.02435300      -0.08206796       0.68940865       0.00000000 NULL
P        0.41648608       1.64320147       3.90794070       0.00000000 NULL
P        2.01133821       1.85449809      10.07251967       0.00000000 NULL
P        0.74525969       0.31056155       9.22809327       0.00000000 NULL
P        2.92290272       0.86012758       1.43328932       0.00000000 NULL
P       -0.05268455       1.69614080       1.66666211       0.00000000 NULL
P       -2.02528645       4.22470387       8.02337413       0.00000000 NULL
P       -0.34918237       0.28579466       5.33863183       0.00000000 NULL
P       -1.55155712       3.46729769       2.31497410       0.00000000 NULL
P        4.91412253      -0.31091915       2.81431723       0.00000000 NULL
P        0.17487824       4.38574447       3.37834918       0.00000000 NULL
13
Lattice="5.372229896212971 -0.1647150046047564 0.06906508283618674 -2.6247768165424668 5.50423711808139 0.1918906270715987 -1.0340003682061585 -1.0369071815311974 11.475667963239744" Properties=species:S:1:pos:R:3:initial_magmoms:R:1:castep_labels:S:1 n_minim_iter=8 pbc="T T T"
P       -1.21107672       1.43893045       9.50518323       0.00000000 NULL
P       -1.06706080       2.42972161       5.49652033       0.00000000 NULL
P        1.04400922      -0.09181052       0.67485291       0.00000000 NULL
P        0.44769237       1.68741619       3.92982793       0.00000000 NULL
P        2.07183388       1.93905913      10.07677169       0.00000000 NULL
P        0.78201790       0.40834821       9.21168460       0.00000000 NULL
P        2.94650848       0.83974695       1.45988461       0.00000000 NULL
P       -0.05340488       1.70006435       1.66433583       0.00000000 NULL
P       -2.03262089       4.28119763       8.03887703       0.00000000 NULL
P       -0.33764243       0.34244911       5.33918968       0.00000000 NULL
P       -1.58276327       3.47612349       2.33858385       0.00000000 NULL
P        4.96326352      -0.31498859       2.83169752       0.00000000 NULL
P        0.16292905       4.38148264       3.42135597       0.00000000 NULL
13
Lattice="5.380981117491639 -0.17092044998311065 0.07492386221186925 -2.6355446076314606 5.479703178193156 0.21237943099936205 -1.0204619700004107 -0.9783901600392713 11.446747580340231" Properties=species:S:1:pos:R:3:initial_magmoms:R:1:castep_labels:S:1 n_minim_iter=9 pbc="T T T"
P       -1.20420211       1.47543647       9.48968163       0.00000000 NULL
P       -1.06395358       2.43970133       5.49232786       0.00000000 NULL
P        1.04910468      -0.09366289       0.66912002       0.00000000 NULL
P        0.45803340       1.70286744       3.93313243       0.00000000 NULL
P        2.08816299       1.97187376      10.06763561       0.00000000 NULL
P        0.79099112       0.44654658       9.19664009       0.00000000 NULL
P        2.94971179       0.83411140       1.46696673       0.00000000 NULL
P       -0.05274253       1.69974773       1.66299411       0.00000000 NULL
P       -2.03152749       4.29793509       8.03874846       0.00000000 NULL
P       -0.33437679       0.36244266       5.33457615       0.00000000 NULL
P       -1.58918432       3.47542346       2.34659935       0.00000000 NULL
P        4.97224763      -0.31135667       2.83415009       0.00000000 NULL
P        0.16035777       4.37748462       3.43402493       0.00000000 NULL
13
Lattice="5.388675324063218 -0.17450471804644693 0.07815418930299993 -2.642965207545273 5.469238295644796 0.2251156674667422 -1.013612034835693 -0.9438787699399994 11.433075404144011" Properties=species:S:1:pos:R:3:initial_magmoms:R:1:castep_labels:S:1 n_minim_iter=10 pbc="T T T"
P       -1.20120567       1.49872259       9.48349400       0.00000000 NULL
P       -1.06292938       2.44801469       5.49181033       0.00000000 NULL
P        1.05257240      -0.09467481       0.66582253       0.00000000 NULL
P        0.46427084       1.71348516       3.93624710       0.00000000 NULL
P        2.09830114       1.99352307      10.06523870       0.00000000 NULL
P        0.79621176       0.47011671       9.19051972       0.00000000 NULL
P        2.95285757       0.83163927       1.47141684       0.00000000 NULL
P       -0.05236285       1.70089905       1.66291728       0.00000000 NULL
P       -2.03220427       4.31133446       8.04161341       0.00000000 NULL
P       -0.33283582       0.37457131       5.33356210       0.00000000 NULL
P       -1.59378493       3.47762370       2.35250335       0.00000000 NULL
P        4.97987729      -0.30909629       2.83633776       0.00000000 NULL
P        0.15885458       4.37866344       3.44287804       0.00000000 NULL
13
Lattice="5.416544661621416 -0.18761578596742537 0.09122027583336714 -2.669983932782324 5.429047060466141 0.27305642328549934 -0.9855838476073339 -0.8130050034121107 11.376032102968907" Properties=species:S:1:pos:R:3:initial_magmoms:R:1:castep_labels:S:1 n_minim_iter=11 pbc="T T T"
P       -1.18795873       1.58696270       9.45556213       0.00000000 NULL
P       -1.05764968       2.47968211       5.48724816       0.00000000 NULL
P        1.06568900      -0.09831877       0.65306785       0.00000000 NULL
P        0.48888296       1.75362813       3.94646620       0.00000000 NULL
P        2.13816981       2.07580016      10.05190151       0.00000000 NULL
P        0.81736883       0.55974788       9.16339360       0.00000000 NULL
P        2.96410566       0.82252440       1.48784704       0.00000000 NULL
P       -0.05045050       1.70495966       1.66206883       0.00000000 NULL
P       -2.03279437       4.36156682       8.04899960       0.00000000 NULL
P       -0.32596781       0.42029447       5.32737295       0.00000000 NULL
P       -1.61031177       3.48555401       2.37403249       0.00000000 NULL
P        5.00830181      -0.30005767       2.84443578       0.00000000 NULL
P        0.15383543       4.38302896       3.47504681       0.00000000 NULL
13
Lattice="5.447770696890828 -0.19950842350981157 0.10879922066912377 -2.6971978208292713 5.389800874865027 0.32280721080795693 -0.9482152780584043 -0.6746214753015388 11.300805693128314" Properties=species:S:1:pos:R:3:initial_magmoms:R:1:castep_labels:S:1 n_minim_iter=12 pbc="T T T"
P       -1.16743165       1.68235400       9.41284870       0.00000000 NULL
P       -1.04740036       2.51604341       5.47486201       0.00000000 NULL
P        1.08138576      -0.10182884       0.63760099       0.00000000 NULL
P        0.52167977       1.79965732       3.95328676       0.00000000 NULL
P        2.19038605       2.16684736      10.02634806       0.00000000 NULL
P        0.84641702       0.65675307       9.12431920       0.00000000 NULL
P        2.97659345       0.81398696       1.50506371       0.00000000 NULL
P       -0.04606019       1.71078032       1.65857479       0.00000000 NULL
P       -2.02747326       4.41681834       8.04761266       0.00000000 NULL
P       -0.31524729       0.46673320       5.31582856       0.00000000 NULL
P       -1.62632171       3.49689523       2.39477603       0.00000000 NULL
P        5.04260737      -0.29016865       2.85546610       0.00000000 NULL
P        0.15163883       4.39282704       3.50568971       0.00000000 NULL
13
Lattice="5.495492325579481 -0.2104473815673214 0.14015839092474708 -2.7308753026681916 5.3245341341465995 0.38789556206604253 -0.8829102534694071 -0.483177784192175 11.158981441119124" Properties=species:S:1:pos:R:3:initial_magmoms:R:1:castep_labels:S:1 n_minim_iter=13 pbc="T T T"
P       -1.12734607       1.81143996       9.31949435       0.00000000 NULL
P       -1.02391715       2.56180036       5.43711609       0.00000000 NULL
P        1.10790633      -0.10587182       0.60956572       0.00000000 NULL
P        0.58404481       1.86636241       3.95278213       0.00000000 NULL
P        2.28368088       2.29335363       9.96005326       0.00000000 NULL
P        0.89852770       0.79197083       9.04291477       0.00000000 NULL
P        2.99478408       0.80126969       1.52669249       0.00000000 NULL
P       -0.03472979       1.71688014       1.64545759       0.00000000 NULL
P       -2.00853076       4.48117215       8.02036499       0.00000000 NULL
P       -0.29488363       0.52433153       5.28625033       0.00000000 NULL
P       -1.64587613       3.50753319       2.41728556       0.00000000 NULL
P        5.09853205      -0.27607298       2.87446506       0.00000000 NULL
P        0.15521463       4.40315422       3.53743334       0.00000000 NULL
13
Lattice="5.548697485885533 -0.22463754041291947 0.1764384158744333 -2.7706032030865586 5.346356578627271 0.3930834686349058 -0.8064134059291476 -0.4381087995304493 11.063532501825549" Properties=species:S:1:pos:R:3:initial_magmoms:R:1:castep_labels:S:1 n_minim_iter=14 pbc="T T T"
P       -1.08090979       1.85857723       9.23829465       0.00000000 NULL
P       -0.99979180       2.58837197       5.39192854       0.00000000 NULL
P        1.13721014      -0.11267537       0.58312374       0.00000000 NULL
P        0.65308834       1.91428792       3.94589937       0.00000000 NULL
P        2.38772619       2.34053597       9.90433016       0.00000000 NULL
P        0.96227341       0.83095873       8.98678659       0.00000000 NULL
P        3.01472095       0.78900697       1.53872111       0.00000000 NULL
P       -0.02261391       1.73307952       1.62202803       0.00000000 NULL
P       -1.98815742       4.51856503       7.97340275       0.00000000 NULL
P       -0.26893025       0.52351190       5.26563139       0.00000000 NULL
P       -1.66758750       3.54348450       2.41352440       0.00000000 NULL
P        5.16409980      -0.30179790       2.91189771       0.00000000 NULL
P        0.15829560       4.44470123       3.53333100       0.00000000 NULL
13
Lattice="5.52178280258874 -0.22599104043912827 0.192467352083456 -2.7598355339997442 5.293830390535151 0.3930010276956821 -0.7624556296068042 -0.4072768258117931 10.922473918765558" Properties=species:S:1:pos:R:3:initial_magmoms:R:1:castep_labels:S:1 n_minim_iter=15 pbc="T T T"
P       -1.04554107       1.86217987       9.12245178       0.00000000 NULL
P       -0.97650975       2.57249145       5.32591062       0.00000000 NULL
P        1.13758764      -0.11135263       0.57335252       0.00000000 NULL
P        0.67094890       1.90930180       3.90758635       0.00000000 NULL
P        2.41305982       2.33985166       9.79404565       0.00000000 NULL
P        0.98684929       0.84337285       8.88186817       0.00000000 NULL
P        3.00025748       0.77920782       1.53082254       0.00000000 NULL
P       -0.01702010       1.71854302       1.60328010       0.00000000 NULL
P       -1.95553976       4.48876717       7.88183940       0.00000000 NULL
P       -0.25110579       0.52652536       5.20376830       0.00000000 NULL
P       -1.65666322       3.51676747       2.38976728       0.00000000 NULL
P        5.14799905      -0.30031328       2.89874817       0.00000000 NULL
P        0.16353673       4.41074929       3.50128478       0.00000000 NULL
13
Lattice="5.541559920369212 -0.2314749588611486 0.2010239639828334 -2.774831753612067 5.314528499231576 0.3916851808754012 -0.7454233633985062 -0.4057174309053664 10.915970392012293" Properties=species:S:1:pos:R:3:initial_magmoms:R:1:castep_labels:S:1 n_minim_iter=16 pbc="T T T"
P       -1.03618238       1.87197143       9.11606655       0.00000000 NULL
P       -0.97375757       2.58291739       5.32246153       0.00000000 NULL
P        1.14494588      -0.11281641       0.56975661       0.00000000 NULL
P        0.68479645       1.92045909       3.90992704       0.00000000 NULL
P        2.43824327       2.34993025       9.79398380       0.00000000 NULL
P        1.00368149       0.84796420       8.88071214       0.00000000 NULL
P        3.00988156       0.77849481       1.53411511       0.00000000 NULL
P       -0.01536508       1.72523979       1.60127351       0.00000000 NULL
P       -1.95475802       4.50490185       7.87876228       0.00000000 NULL
P       -0.24480030       0.52592779       5.20329022       0.00000000 NULL
P       -1.66443104       3.53211886       2.39002668       0.00000000 NULL
P        5.17039182      -0.30869456       2.90978167       0.00000000 NULL
P        0.16349578       4.42898162       3.50289813       0.00000000 NULL
13
Lattice="5.547237989833503 -0.23490715037954707 0.21021981684450575 -2.7811686065298904 5.31593429710749 0.3899696844086677 -0.7242741373953706 -0.3996232627990159 10.877485058812423" Properties=species:S:1:pos:R:3:initial_magmoms:R:1:castep_labels:S:1 n_minim_iter=17 pbc="T T T"
P       -1.02168884       1.87757341       9.08349438       0.00000000 NULL
P       -0.96632425       2.58515157       5.30380857       0.00000000 NULL
P        1.14958749      -0.11332271       0.56522607       0.00000000 NULL
P        0.69789424       1.92595830       3.90163667       0.00000000 NULL
P        2.46008083       2.35506963       9.76657196       0.00000000 NULL
P        1.02011088       0.85236557       8.85416383       0.00000000 NULL
P        3.01240785       0.77599881       1.53385356       0.00000000 NULL
P       -0.01291757       1.72600083       1.59536007       0.00000000 NULL
P       -1.94613226       4.50716972       7.85363818       0.00000000 NULL
P       -0.23661803       0.52546082       5.18751659       0.00000000 NULL
P       -1.66633976       3.53545663       2.38382964       0.00000000 NULL
P        5.18026063      -0.31377735       2.91332201       0.00000000 NULL
P        0.16498500       4.43260955       3.49530446       0.00000000 NULL
13
Lattice="5.564450460055399 -0.24493226384936004 0.2372140596346238 -2.799963448636133 5.32310513061074 0.38389679529630705 -0.6623329473127805 -0.38482784365511546 10.761557111267344" Properties=species:S:1:pos:R:3:initial_magmoms:R:1:castep_labels:S:1 n_minim_iter=18 pbc="T T T"
P       -0.97925725       1.89276440       8.98508293       0.00000000 NULL
P       -0.94471910       2.59178841       5.24722212       0.00000000 NULL
P        1.16340605      -0.11474327       0.55183936       0.00000000 NULL
P        0.73693745       1.94241493       3.87602026       0.00000000 NULL
P        2.52448936       2.36950406       9.68313684       0.00000000 NULL
P        1.06841228       0.86356565       8.77366965       0.00000000 NULL
P        3.02003052       0.76914963       1.53215614       0.00000000 NULL
P       -0.00573131       1.72874568       1.57757744       0.00000000 NULL
P       -1.92109639       4.51411085       7.77677088       0.00000000 NULL
P       -0.21276841       0.52302589       5.13922145       0.00000000 NULL
P       -1.67209066       3.54655415       2.36446943       0.00000000 NULL
P        5.20963155      -0.32947253       2.92301682       0.00000000 NULL
P        0.16931491       4.44505969       3.47127745       0.00000000 NULL
13
Lattice="5.59918266918384 -0.2638976006446795 0.2933666744535859 -2.83650665766991 5.351530525720643 0.36005753875421526 -0.5338256075919158 -0.3824355996966756 10.517457331223895" Properties=species:S:1:pos:R:3:initial_magmoms:R:1:castep_labels:S:1 n_minim_iter=19 pbc="T T T"
P       -0.88999240       1.90694545       8.77390573       0.00000000 NULL
P       -0.89942536       2.59910205       5.12287545       0.00000000 NULL
P        1.19212909      -0.11713682       0.52486493       0.00000000 NULL
P        0.82043183       1.97325184       3.81751337       0.00000000 NULL
P        2.65880473       2.38585008       9.50216025       0.00000000 NULL
P        1.16909029       0.86795798       8.60131192       0.00000000 NULL
P        3.03548568       0.75706637       1.52429106       0.00000000 NULL
P        0.00986007       1.73476565       1.53849651       0.00000000 NULL
P       -1.86760667       4.51991685       7.60395252       0.00000000 NULL
P       -0.16363702       0.50705750       5.03290638       0.00000000 NULL
P       -1.68221985       3.57217759       2.31639581       0.00000000 NULL
P        5.26863491      -0.36737201       2.94159834       0.00000000 NULL
P        0.17972885       4.47517924       3.41059164       0.00000000 NULL
13
Lattice="5.652543863664587 -0.3081603936814985 0.42488412660093855 -2.9091892186039874 5.375988938607795 0.3071115081660863 -0.22640036500883576 -0.35871643410311244 9.93254665020787" Properties=species:S:1:pos:R:3:initial_magmoms:R:1:castep_labels:S:1 n_minim_iter=20 pbc="T T T"
P       -0.67189428       1.93616776       8.27324543       0.00000000 NULL
P       -0.78976861       2.59735052       4.82781554       0.00000000 NULL
P        1.25702760      -0.11419283       0.46510932       0.00000000 NULL
P        1.02083098       2.03468630       3.67968120       0.00000000 NULL
P        2.96481839       2.42804541       9.07530938       0.00000000 NULL
P        1.40312840       0.88010735       8.18898041       0.00000000 NULL
P        3.05413946       0.73080743       1.49809220       0.00000000 NULL
P        0.05005208       1.72874625       1.45585472       0.00000000 NULL
P       -1.73430655       4.49843441       7.18979814       0.00000000 NULL
P       -0.04768873       0.47612140       4.76490960       0.00000000 NULL
P       -1.69747985       3.60377337       2.20447019       0.00000000 NULL
P        5.37138981      -0.45034941       2.97595614       0.00000000 NULL
P        0.20111485       4.51241298       3.26626345       0.00000000 NULL
13
Lattice="5.778640253778258 -0.3355477972103094 0.418513961277422 -2.996517556237099 5.579591095918255 0.300791274207182 -0.2619184117476572 -0.42655627984947464 10.331700317763817" Properties=species:S:1:pos:R:3:initial_magmoms:R:1:castep_labels:S:1 n_minim_iter=21 pbc="T T T"
P       -0.72004790       1.96415879       8.59327804       0.00000000 NULL
P       -0.83825672       2.66453366       5.00727671       0.00000000 NULL
P        1.29604807      -0.11386669       0.45733761       0.00000000 NULL
P        1.05453248       2.10078309       3.81518421       0.00000000 NULL
P        3.00312846       2.48044813       9.41386836       0.00000000 NULL
P        1.40218553       0.86142746       8.50664320       0.00000000 NULL
P        3.10533210       0.75180006       1.52631938       0.00000000 NULL
P        0.05129728       1.77828069       1.50210182       0.00000000 NULL
P       -1.81936139       4.60771912       7.45748205       0.00000000 NULL
P       -0.07288444       0.45669005       4.95153563       0.00000000 NULL
P       -1.76422879       3.72514201       2.29022071       0.00000000 NULL
P        5.46127622      -0.50812146       3.08673531       0.00000000 NULL
P        0.16956663       4.66364629       3.37303412       0.00000000 NULL
13
Lattice="5.64087396711524 -0.3136418102060534 0.41620174152821837 -2.9098725515138724 5.3684962855502425 0.3106447797043314 -0.24218207243354245 -0.3554820590322385 10.032097356786005" Properties=species:S:1:pos:R:3:initial_magmoms:R:1:castep_labels:S:1 n_minim_iter=22 pbc="T T T"
P       -0.68627895       1.93588524       8.35267002       0.00000000 NULL
P       -0.80085117       2.58691181       4.87119796       0.00000000 NULL
P        1.26782749      -0.10372046       0.44605882       0.00000000 NULL
P        1.03835432       2.04475428       3.71667073       0.00000000 NULL
P        2.95474370       2.44398733       9.15912734       0.00000000 NULL
P        1.38261949       0.87527110       8.26867389       0.00000000 NULL
P        3.03470671       0.73424315       1.49095207       0.00000000 NULL
P        0.05934098       1.71657969       1.46854218       0.00000000 NULL
P       -1.75496834       4.47139340       7.26100341       0.00000000 NULL
P       -0.06335324       0.46776530       4.80949909       0.00000000 NULL
P       -1.70985786       3.59781180       2.23809759       0.00000000 NULL
P        5.33342926      -0.46537775       3.00862628       0.00000000 NULL
P        0.18030843       4.50872716       3.29508575       0.00000000 NULL
13
Lattice="5.653825371800348 -0.3116999407345385 0.4195933553393591 -2.913642780666161 5.361495223416938 0.3134724983024644 -0.2379017395228141 -0.34488548675197317 10.0358756616478" Properties=species:S:1:pos:R:3:initial_magmoms:R:1:castep_labels:S:1 n_minim_iter=23 pbc="T T T"
P       -0.68248344       1.94193474       8.35700555       0.00000000 NULL
P       -0.79903682       2.58765871       4.87445589       0.00000000 NULL
P        1.27215306      -0.10182415       0.44415297       0.00000000 NULL
P        1.04660392       2.04775210       3.72126414       0.00000000 NULL
P        2.96872252       2.45378471       9.16742403       0.00000000 NULL
P        1.39020190       0.88224127       8.27407328       0.00000000 NULL
P        3.04219242       0.73657230       1.49258032       0.00000000 NULL
P        0.06315571       1.71454839       1.47085680       0.00000000 NULL
P       -1.75391443       4.47001546       7.26702447       0.00000000 NULL
P       -0.06154374       0.47098553       4.81127951       0.00000000 NULL
P       -1.71228607       3.59536330       2.24220382       0.00000000 NULL
P        5.34440616      -0.46175934       3.01502663       0.00000000 NULL
P        0.18307179       4.50722025       3.30052005       0.00000000 NULL
13
Lattice="5.67015230748163 -0.30698850476984674 0.42397884887367426 -2.9159206151631403 5.342715468328976 0.3161058482239032 -0.23295679644647793 -0.3313792040263206 10.035783617052088" Properties=species:S:1:pos:R:3:initial_magmoms:R:1:castep_labels:S:1 n_minim_iter=24 pbc="T T T"
P       -0.67704121       1.94598225       8.35785016       0.00000000 NULL
P       -0.79563081       2.58320973       4.87545772       0.00000000 NULL
P        1.27888449      -0.09792919       0.43971794       0.00000000 NULL
P        1.05986577       2.04937902       3.72547575       0.00000000 NULL
P        2.98862559       2.46477462       9.17376491       0.00000000 NULL
P        1.39989302       0.88914443       8.27700567       0.00000000 NULL
P        3.05134967       0.73998228       1.49260332       0.00000000 NULL
P        0.07044004       1.70803583       1.47311208       0.00000000 NULL
P       -1.75132558       4.45783552       7.27078004       0.00000000 NULL
P       -0.05967492       0.47321196       4.81056378       0.00000000 NULL
P       -1.71479117       3.58574965       2.24678276       0.00000000 NULL
P        5.35601213      -0.45564390       3.02366097       0.00000000 NULL
P        0.18741852       4.49812077       3.30533647       0.00000000 NULL
13
Lattice="5.688394207069093 -0.2980268252493959 0.42637300457335886 -2.9144223327694214 5.3122895826604655 0.31447272028702955 -0.23441603840720895 -0.3270913325571656 10.040202925041292" Properties=species:S:1:pos:R:3:initial_magmoms:R:1:castep_labels:S:1 n_minim_iter=25 pbc="T T T"
P       -0.67514891       1.93878769       8.35962531       0.00000000 NULL
P       -0.79299581       2.56800684       4.87526667       0.00000000 NULL
P        1.28910197      -0.09112149       0.43077343       0.00000000 NULL
P        1.07762460       2.04705225       3.72942026       0.00000000 NULL
P        3.00971004       2.46982055       9.18113417       0.00000000 NULL
P        1.40601354       0.88637325       8.28213180       0.00000000 NULL
P        3.05996495       0.74492221       1.48769202       0.00000000 NULL
P        0.08258213       1.69501183       1.47471847       0.00000000 NULL
P       -1.75072048       4.42481907       7.27428985       0.00000000 NULL
P       -0.06123427       0.46779338       4.80994455       0.00000000 NULL
P       -1.71825261       3.56684899       2.25157042       0.00000000 NULL
P        5.36260883      -0.44955756       3.03555047       0.00000000 NULL
P        0.19158294       4.47909278       3.30693172       0.00000000 NULL
13
Lattice="5.745918984873948 -0.2528017240094868 0.42278699342080944 -2.891146833753613 5.167781309649521 0.3138678817730748 -0.2702227541615664 -0.30695423244619924 10.053300645029024" Properties=species:S:1:pos:R:3:initial_magmoms:R:1:castep_labels:S:1 n_minim_iter=26 pbc="T T T"
P       -0.68848004       1.90645339       8.36210991       0.00000000 NULL
P       -0.78955496       2.49899672       4.87249310       0.00000000 NULL
P        1.33392470      -0.05863107       0.38679370       0.00000000 NULL
P        1.14129005       2.03451696       3.74103318       0.00000000 NULL
P        3.07044480       2.49446154       9.20183460       0.00000000 NULL
P        1.40533357       0.87379542       8.29579176       0.00000000 NULL
P        3.08140461       0.76898997       1.45337350       0.00000000 NULL
P        0.13904024       1.63422813       1.48252407       0.00000000 NULL
P       -1.75766223       4.26828729       7.29053463       0.00000000 NULL
P       -0.07970277       0.44154444       4.80135389       0.00000000 NULL
P       -1.73141777       3.47856027       2.27670458       0.00000000 NULL
P        5.35492603      -0.41722957       3.07524317       0.00000000 NULL
P        0.20229879       4.38883830       3.31050014       0.00000000 NULL
