9
Lattice="4.995269999999998 1.1027259915313067e-16 4.824562353432801e-16 0.4554780382887806 6.438128265655834 -2.73134295881608e-15 2.260021459468408 0.5703425896182344 6.114375063840116" Properties=species:S:1:pos:R:3:initial_magmoms:R:1:castep_labels:S:1 n_minim_iter=1 pbc="T T T"
P        2.46258667       4.13547480       2.24189615       0.00000000 NULL
P        4.72458166       2.40824090       2.83027940       0.00000000 NULL
P        6.22424387       2.12953640       6.01765910       0.00000000 NULL
P        3.18902511       6.17743203       5.88330855       0.00000000 NULL
P        4.07965299       4.69079939       3.35706828       0.00000000 NULL
P        5.78352399       3.75357215       4.30744883       0.00000000 NULL
P        2.61678037       5.66529621       0.94595802       0.00000000 NULL
P        4.50071791       3.37772406       0.64001671       0.00000000 NULL
P        5.47649630       5.78467896       4.29549095       0.00000000 NULL
9
Lattice="4.999264627888018 0.0014157400314300625 0.003988899672576474 0.4576669452322102 6.444114055668361 0.0008828539945962378 2.2668729470307287 0.5719949838449325 6.119474797676623" Properties=species:S:1:pos:R:3:initial_magmoms:R:1:castep_labels:S:1 n_minim_iter=2 pbc="T T T"
P        2.46738029       4.13986757       2.24532135       0.00000000 NULL
P        4.73126966       2.41202624       2.83573685       0.00000000 NULL
P        6.23456964       2.13356354       6.02590155       0.00000000 NULL
P        3.19797064       6.18440129       5.88940490       0.00000000 NULL
P        4.08683984       4.69640359       3.36246577       0.00000000 NULL
P        5.79275286       3.75873147       4.31473079       0.00000000 NULL
P        2.62128043       5.67149364       0.94893119       0.00000000 NULL
P        4.50590179       3.38227832       0.64438035       0.00000000 NULL
P        5.48605261       5.79219960       4.30273331       0.00000000 NULL
9
Lattice="5.120122795067509 0.04519853436412932 0.12617960439962322 0.5251162496023114 6.623781131749606 0.02799382870789288 2.4761175007173564 0.6225328135099979 6.272769972360225" Properties=species:S:1:pos:R:3:initial_magmoms:R:1:castep_labels:S:1 n_minim_iter=3 pbc="T T T"
P        2.61373102       4.27210494       2.34906850       0.00000000 NULL
P        4.93490023       2.52709965       3.00155577       0.00000000 NULL
P        6.54905985       2.25626031       6.27548660       0.00000000 NULL
P        3.47156458       6.39458929       6.07339314       0.00000000 NULL
P        4.30612704       4.86566179       3.52618357       0.00000000 NULL
P        6.07399887       3.91506320       4.53582082       0.00000000 NULL
P        2.75873301       5.85838643       1.03960492       0.00000000 NULL
P        4.66380553       3.52024072       0.77791483       0.00000000 NULL
P        5.77775493       6.01983575       4.52269223       0.00000000 NULL
9
Lattice="5.127253232278879 0.07754220415858067 0.20711699505654207 0.5674523900455454 6.6448157037702735 0.029013634513675234 2.5821064616076295 0.6327279085258833 6.268020208747468" Properties=species:S:1:pos:R:3:initial_magmoms:R:1:castep_labels:S:1 n_minim_iter=4 pbc="T T T"
P        2.67839219       4.29081103       2.36728703       0.00000000 NULL
P        5.00222234       2.56535537       3.05631589       0.00000000 NULL
P        6.66845631       2.29522326       6.33234690       0.00000000 NULL
P        3.61301459       6.42574212       6.07897929       0.00000000 NULL
P        4.39590208       4.89914471       3.56504738       0.00000000 NULL
P        6.17763597       3.95308735       4.59839347       0.00000000 NULL
P        2.81295011       5.89584344       1.06683806       0.00000000 NULL
P        4.70504517       3.55968641       0.84813537       0.00000000 NULL
P        5.89314356       6.07418214       4.57988542       0.00000000 NULL
9
Lattice="5.107137598811007 0.1274194511923913 0.35167268901522714 0.6299022445420186 6.6562185492494885 0.018159701858247224 2.7556412425914836 0.6330750968451812 6.2240113710985545" Properties=species:S:1:pos:R:3:initial_magmoms:R:1:castep_labels:S:1 n_minim_iter=5 pbc="T T T"
P        2.77182493       4.29858466       2.37876163       0.00000000 NULL
P        5.08753767       2.61222968       3.13352782       0.00000000 NULL
P        6.83764925       2.33580807       6.39613185       0.00000000 NULL
P        3.83697561       6.44035171       6.04436776       0.00000000 NULL
P        4.52226764       4.92732531       3.60672245       0.00000000 NULL
P        6.31821369       3.98828570       4.67865025       0.00000000 NULL
P        2.88172386       5.93545112       1.09783656       0.00000000 NULL
P        4.74442840       3.60692395       0.96367873       0.00000000 NULL
P        6.05268866       6.13075882       4.64602025       0.00000000 NULL
9
Lattice="5.045738660533441 0.20796808396899963 0.7248637662118596 0.7281184693865913 6.75823330106935 -0.03257521310420127 3.193857317832837 0.5974038653653452 6.132332975667403" Properties=species:S:1:pos:R:3:initial_magmoms:R:1:castep_labels:S:1 n_minim_iter=6 pbc="T T T"
P        2.96950255       4.33067887       2.40192503       0.00000000 NULL
P        5.27511584       2.71002531       3.33519988       0.00000000 NULL
P        7.24241142       2.38737107       6.57621684       0.00000000 NULL
P        4.35766426       6.50138553       5.96058741       0.00000000 NULL
P        4.79451068       5.00362663       3.71173324       0.00000000 NULL
P        6.63257171       4.04792856       4.89185295       0.00000000 NULL
P        2.99002363       6.08667764       1.15513820       0.00000000 NULL
P        4.81186169       3.71567621       1.25547215       0.00000000 NULL
P        6.39435333       6.28092369       4.81072264       0.00000000 NULL
9
Lattice="5.203886687345786 0.1313597022454531 0.7360030450217218 0.6438023794157163 6.807683558354265 0.02372283118802297 3.2702965573802447 0.6202456560694883 6.073248752624903" Properties=species:S:1:pos:R:3:initial_magmoms:R:1:castep_labels:S:1 n_minim_iter=7 pbc="T T T"
P        2.98779877       4.34110374       2.40477172       0.00000000 NULL
P        5.39300754       2.70004337       3.33680391       0.00000000 NULL
P        7.42095839       2.37058799       6.53479034       0.00000000 NULL
P        4.39409867       6.55908056       5.96152594       0.00000000 NULL
P        4.85403526       4.99998681       3.72260824       0.00000000 NULL
P        6.76308347       4.00717081       4.89561018       0.00000000 NULL
P        2.96528203       6.12829652       1.18633056       0.00000000 NULL
P        4.92676607       3.65314905       1.29652699       0.00000000 NULL
P        6.48293046       6.30211653       4.82981530       0.00000000 NULL
9
Lattice="5.183259967186219 0.10229252815540185 0.7461318526349141 0.6044585174930376 6.7351729095560655 0.01971599891698915 3.270043568283369 0.5962234680331691 5.973057764327797" Properties=species:S:1:pos:R:3:initial_magmoms:R:1:castep_labels:S:1 n_minim_iter=8 pbc="T T T"
P        2.96093056       4.27816387       2.36580652       0.00000000 NULL
P        5.36530319       2.65018613       3.29825797       0.00000000 NULL
P        7.39541274       2.31019057       6.44109293       0.00000000 NULL
P        4.36411241       6.46840244       5.86475159       0.00000000 NULL
P        4.81488463       4.91868992       3.67024904       0.00000000 NULL
P        6.72403576       3.92595525       4.83200281       0.00000000 NULL
P        2.91492427       6.05636459       1.16674878       0.00000000 NULL
P        4.89510580       3.58290727       1.29428133       0.00000000 NULL
P        6.43202164       6.20635884       4.76480971       0.00000000 NULL
9
Lattice="5.225696387467364 0.0855253060057732 0.7735861962051399 0.586717600706479 6.764987794374352 0.025942906291389265 3.3209337730804664 0.594950446252944 5.985084870853968" Properties=species:S:1:pos:R:3:initial_magmoms:R:1:castep_labels:S:1 n_minim_iter=9 pbc="T T T"
P        2.98130831       4.28850767       2.37946464       0.00000000 NULL
P        5.41320746       2.65036783       3.32743122       0.00000000 NULL
P        7.47358196       2.30365194       6.47367101       0.00000000 NULL
P        4.40597855       6.49099664       5.88576520       0.00000000 NULL
P        4.85014503       4.92753438       3.69485536       0.00000000 NULL
P        6.78362965       3.92378483       4.86662824       0.00000000 NULL
P        2.91814466       6.08106591       1.18175465       0.00000000 NULL
P        4.93043028       3.58147915       1.32249726       0.00000000 NULL
P        6.48188362       6.22197909       4.79903145       0.00000000 NULL
9
Lattice="5.2482386437366015 0.0676173838611346 0.7899628447623817 0.5656925115572541 6.762749940516513 0.029268818105337994 3.3491335107904048 0.5885352300165873 5.965631370993589" Properties=species:S:1:pos:R:3:initial_magmoms:R:1:castep_labels:S:1 n_minim_iter=10 pbc="T T T"
P        2.98657399       4.27784185       2.37713449       0.00000000 NULL
P        5.43545809       2.63710814       3.33319550       0.00000000 NULL
P        7.51333831       2.28403707       6.46607605       0.00000000 NULL
P        4.42121745       6.48024755       5.87274366       0.00000000 NULL
P        4.86081669       4.91100370       3.69466007       0.00000000 NULL
P        6.80946816       3.90109118       4.86852342       0.00000000 NULL
P        2.90739624       6.07567405       1.18534732       0.00000000 NULL
P        4.94500303       3.56201989       1.33666076       0.00000000 NULL
P        6.49867933       6.20542859       4.80076461       0.00000000 NULL
9
Lattice="5.4225443525223405 -0.05729566580907611 0.8970906057696968 0.42059248422523715 6.744094049434298 0.052229893667948904 3.5448608129554025 0.5439063763053753 5.845327411128273" Properties=species:S:1:pos:R:3:initial_magmoms:R:1:castep_labels:S:1 n_minim_iter=11 pbc="T T T"
P        3.03031134       4.20111994       2.36590919       0.00000000 NULL
P        5.60306849       2.54334369       3.37646928       0.00000000 NULL
P        7.80226184       2.14637895       6.42208519       0.00000000 NULL
P        4.53043237       6.40185735       5.79544911       0.00000000 NULL
P        4.94332500       4.79394329       3.69740679       0.00000000 NULL
P        7.00364954       3.74192895       4.88631386       0.00000000 NULL
P        2.83822547       6.03518870       1.21059485       0.00000000 NULL
P        5.06225249       3.42636195       1.43059793       0.00000000 NULL
P        6.62850747       6.08715837       4.81778611       0.00000000 NULL
