6
Lattice="6.173764070779166 0.0 0.0 0.0 5.220267580100025 -4.310383170277189e-16 0.0 -2.610133790050012 4.520884338918939" Properties=species:S:1:pos:R:3:initial_magmoms:R:1:castep_labels:S:1:forces:R:3 n_minim_iter=1 energy=-29.233090337462 stress="-0.0010670392904274864 -0.0 0.0 -0.0 0.0012899597004942824 -0.0 0.0 -0.0 0.0012898224342319262" free_energy=-29.233090337462 pbc="T T T"
P        4.65780945       1.47404847       3.06860462       0.00000000 NULL      -0.04945500       0.16527600      -0.27441900
P        0.54196673      -0.78438001       4.26314545       0.00000000 NULL      -0.04945500       0.15500700       0.28034200
P        2.59988809      -0.68966847       1.71001860       0.00000000 NULL      -0.04945600      -0.32028900      -0.00592600
P        0.45580512       2.33844466       3.85828617       0.00000000 NULL       0.04945600      -0.67768100      -0.68110400
P        2.51372647       0.70967141       0.09600940       0.00000000 NULL       0.04945500       0.92869700      -0.24634100
P        4.57164783       4.78228529       0.56658877       0.00000000 NULL       0.04945500      -0.25100900       0.92744900
6
Lattice="6.294651799454915 0.0 0.0 0.0 5.099319327703067 -7.898783182012538e-17 0.0 -2.5496596638515334 4.416140079799843" Properties=species:S:1:pos:R:3:initial_magmoms:R:1:castep_labels:S:1:forces:R:3 n_minim_iter=2 energy=-29.490186364738 stress="0.009577273529171003 0.0 0.0 0.0 0.014156705713207469 -0.0 0.0 -0.0 0.014156705713207469" free_energy=-29.490186364738 pbc="T T T"
P        4.74272414       1.46003357       2.96407365       0.00000000 NULL      -0.00241500       0.46048500       0.45375500
P        0.54628961      -0.74732020       4.19852942       0.00000000 NULL      -0.00241500      -0.62320600       0.17191500
P        2.64450688      -0.71271337       1.66967709       0.00000000 NULL      -0.00241600       0.16272200      -0.62567100
P        0.47101949       2.20169655       3.68590834       0.00000000 NULL       0.00241600       0.00267600      -0.37623800
P        2.56923675       0.80638079       0.06377097       0.00000000 NULL       0.00241500       0.32449200       0.19043800
P        4.66745402       4.64090165       0.66646076       0.00000000 NULL       0.00241500      -0.32717000       0.18580100
6
Lattice="6.240436154162551 0.0 0.0 0.0 4.871280928171558 -4.566775542138314e-16 0.0 -2.4356404640857785 4.218653032767212" Properties=species:S:1:pos:R:3:initial_magmoms:R:1:castep_labels:S:1:forces:R:3 n_minim_iter=3 energy=-29.632525339104 stress="-0.010641013493936695 0.0 -0.0 0.0 -0.005536542799854123 -0.0 -0.0 -0.0 -0.005536464822574612" free_energy=-29.632525339104 pbc="T T T"
P        4.69789229       1.41337914       2.81768920       0.00000000 NULL      -0.29067400       0.10271800       0.08568400
P        0.53760152      -0.71123954       4.03383067       0.00000000 NULL      -0.29067400      -0.12556300       0.04611400
P        2.61774691      -0.70213961       1.58578619       0.00000000 NULL      -0.29067300       0.02284400      -0.13179800
P        0.47094552       2.05337581       3.46564096       0.00000000 NULL       0.29067300      -0.19974300      -0.41046600
P        2.55109091       0.84325990       0.04545514       0.00000000 NULL       0.29067400       0.45534600       0.03225100
P        4.63123629       4.41028567       0.70755693       0.00000000 NULL       0.29067300      -0.25560300       0.37821500
6
Lattice="6.347650260805349 0.0 0.0 0.0 4.828200434085481 -8.125721086405927e-16 0.0 -2.4141002170427397 4.181344230481085" Properties=species:S:1:pos:R:3:initial_magmoms:R:1:castep_labels:S:1:forces:R:3 n_minim_iter=4 energy=-29.657953041749 stress="0.005456630714326448 -0.0 -0.0 -0.0 -0.008269067112447882 -0.0 -0.0 -0.0 -0.008269067112447882" free_energy=-29.657953041749 pbc="T T T"
P        4.77086026       1.40900274       2.79901911       0.00000000 NULL       0.02073600       0.16303000       0.02448300
P        0.53909341      -0.71442281       4.00206684       0.00000000 NULL       0.02073700      -0.10271600       0.12894800
P        2.65497684      -0.69457993       1.56160251       0.00000000 NULL       0.02073800      -0.06031100      -0.15343200
P        0.48678101       2.02874602       3.41955203       0.00000000 NULL      -0.02073600      -0.37607100      -0.43239800
P        2.60266443       0.85240849       0.04716958       0.00000000 NULL      -0.02073700       0.56250000      -0.10948500
P        4.71854785       4.36114613       0.71462262       0.00000000 NULL      -0.02073800      -0.18643300       0.54188400
6
Lattice="6.139878714141094 0.0 0.0 0.0 4.982815883439495 -2.7477872322212818e-15 0.0 -2.4914079417197446 4.315245137439207" Properties=species:S:1:pos:R:3:initial_magmoms:R:1:castep_labels:S:1:forces:R:3 n_minim_iter=5 energy=-30.031374330487 stress="0.005793965375448716 0.0 0.0 0.0 0.0039006933396888896 0.0 0.0 0.0 0.0039006933396888896" free_energy=-30.031374330487 pbc="T T T"
P        4.54115982       1.58059450       3.01054081       0.00000000 NULL       0.25795400       0.08919100       0.48041600
P        0.44790734      -0.90609414       4.17880972       0.00000000 NULL       0.25795200      -0.46064900      -0.16296800
P        2.49453358      -0.67450037       1.44113974       0.00000000 NULL       0.25795200       0.37145800      -0.31744900
P        0.54438803       2.01814852       3.32463865       0.00000000 NULL      -0.25795400       0.18715900      -0.06287400
P        2.59101427       1.09452009       0.08544857       0.00000000 NULL      -0.25795200      -0.03912800       0.19352100
P        4.63764051       4.36155521       0.90515792       0.00000000 NULL      -0.25795100      -0.14803000      -0.13064600
6
Lattice="6.609989623190117 0.0 0.0 0.0 5.140685180874056 -4.817396855722268e-15 0.0 -2.5703425904370234 4.451963959495136" Properties=species:S:1:pos:R:3:initial_magmoms:R:1:castep_labels:S:1:forces:R:3 n_minim_iter=6 energy=-30.281660739419 stress="0.02387597284164245 0.0 -0.0 0.0 0.012172886347155572 -0.0 -0.0 -0.0 0.012172886347155572" free_energy=-30.281660739419 pbc="T T T"
P        4.95914201       1.69525894       3.32388453       0.00000000 NULL       0.50772700      -0.01190500       0.49300800
P        0.55248226      -1.15585533       4.25815901       0.00000000 NULL       0.50772300      -0.42100400      -0.25681400
P        2.75581214      -0.53940362       1.32188438       0.00000000 NULL       0.50772300       0.43291000      -0.23619400
P        0.51579011       2.03090056       3.21048242       0.00000000 NULL      -0.50772700       0.38849900       0.06245900
P        2.71911999       1.34487556       0.15357026       0.00000000 NULL      -0.50772300      -0.24834100       0.30522100
P        4.92244986       4.33525164       1.08791127       0.00000000 NULL      -0.50772300      -0.14015900      -0.36768100
6
Lattice="6.650056508745498 0.0 0.0 0.0 5.162029372359785 -5.381305462879068e-15 0.0 -2.5810146861798873 4.470448571545017" Properties=species:S:1:pos:R:3:initial_magmoms:R:1:castep_labels:S:1:forces:R:3 n_minim_iter=7 energy=-30.348873653413 stress="0.021978211531711707 0.0 -0.0 0.0 0.010030846906930195 -0.0 -0.0 -0.0 0.0100309772335235" free_energy=-30.348873653413 pbc="T T T"
P        5.00863919       1.66929882       3.39634940       0.00000000 NULL       0.38357400      -0.00172500       0.33681300
P        0.57526818      -1.19495959       4.21792906       0.00000000 NULL       0.38357100      -0.29082100      -0.16989800
P        2.79195368      -0.47433924       1.32661868       0.00000000 NULL       0.38357000       0.29254900      -0.16691100
P        0.49947951       2.04369120       3.14686691       0.00000000 NULL      -0.38357500       0.33026200       0.19506300
P        2.71616501       1.41491708       0.19645505       0.00000000 NULL      -0.38357100      -0.33406200       0.18848600
P        4.93285051       4.28443577       1.12712661       0.00000000 NULL      -0.38356900       0.00379700      -0.38355300
6
Lattice="6.484876067474726 0.0 0.0 0.0 5.166605061889982 -5.55610397976977e-15 0.0 -2.583302530944986 4.474411234917997" Properties=species:S:1:pos:R:3:initial_magmoms:R:1:castep_labels:S:1:forces:R:3 n_minim_iter=8 energy=-30.41703038411 stress="0.005202241887593709 -0.0 0.0 -0.0 0.00019824671286884697 -0.0 0.0 -0.0 0.00019824671286884697" free_energy=-30.41703038411 pbc="T T T"
P        4.88377304       1.59407036       3.41897557       0.00000000 NULL       0.07105700       0.04727400       0.04654700
P        0.56052233      -1.17465235       4.14542888       0.00000000 NULL       0.07105700      -0.06395100       0.01766600
P        2.72214768      -0.41941802       1.38441802       0.00000000 NULL       0.07105700       0.01667600      -0.06421600
P        0.48752964       2.06534777       3.15900456       0.00000000 NULL      -0.07105700       0.02548800      -0.07023200
P        2.64915500       1.39815298       0.20914136       0.00000000 NULL      -0.07105700       0.04807900       0.05718900
P        4.81078035       4.28640684       1.10626532       0.00000000 NULL      -0.07105700      -0.07356600       0.01304500
6
Lattice="6.270756516757094 0.0 0.0 0.0 5.245012260124031 -5.624434228029201e-15 0.0 -2.6225061300620105 4.542313860428245" Properties=species:S:1:pos:R:3:initial_magmoms:R:1:castep_labels:S:1:forces:R:3 n_minim_iter=9 energy=-30.436989951643 stress="0.0028976369785902434 0.0 -0.0 0.0 -0.000682608036675059 -0.0 -0.0 -0.0 -0.0006825411011939181" free_energy=-30.436989951643 pbc="T T T"
P        4.70412624       1.60225283       3.49816060       0.00000000 NULL       0.05107100       0.03554700       0.03107400
P        0.52362190      -1.20811624       4.18082521       0.00000000 NULL       0.05106600      -0.04468200       0.01524800
P        2.61387407      -0.39413660       1.40564190       0.00000000 NULL       0.05106600       0.00913800      -0.04632100
P        0.48982510       2.13525936       3.13881067       0.00000000 NULL      -0.05107100       0.05070100       0.07082000
P        2.58007727       1.45909280       0.27978352       0.00000000 NULL      -0.05106700      -0.08668500       0.00850100
P        4.67032944       4.27316622       1.12371967       0.00000000 NULL      -0.05106500       0.03598000      -0.07932300
6
Lattice="6.169023558373326 0.0 0.0 0.0 5.336135680772834 -4.940211248506696e-15 0.0 -2.6680678403864126 4.621229057589846" Properties=species:S:1:pos:R:3:initial_magmoms:R:1:castep_labels:S:1:forces:R:3 n_minim_iter=10 energy=-30.443906890228 stress="-0.00015704181651317314 0.0 -0.0 0.0 0.0014066056047504726 0.0 -0.0 0.0 0.0014065398693731124" free_energy=-30.443906890228 pbc="T T T"
P        4.62410282       1.63885386       3.56613256       0.00000000 NULL      -0.07109000      -0.02474100       0.02339800
P        0.51142045      -1.23972048       4.25745186       0.00000000 NULL      -0.07109500      -0.00789500      -0.03312800
P        2.56776163      -0.39913339       1.41887370       0.00000000 NULL      -0.07109300       0.03263500       0.00972800
P        0.48558491       2.21129458       3.18145860       0.00000000 NULL       0.07109000       0.06457400       0.06851000
P        2.54192610       1.47526441       0.32430798       0.00000000 NULL       0.07109500      -0.09161500       0.02166800
P        4.59826728       4.31764452       1.11546247       0.00000000 NULL       0.07109400       0.02704300      -0.09017500
6
Lattice="6.014924688248803 0.0 0.0 0.0 5.387092202972908 -4.195467697787226e-15 0.0 -2.69354610148645 4.665358700303615" Properties=species:S:1:pos:R:3:initial_magmoms:R:1:castep_labels:S:1:forces:R:3 n_minim_iter=11 energy=-30.45076400922 stress="0.0002469382196061355 0.0 -0.0 0.0 0.00014916841286146144 -0.0 -0.0 -0.0 0.0001492345629336838" free_energy=-30.45076400922 pbc="T T T"
P        4.48763698       1.64394365       3.60138826       0.00000000 NULL      -0.00659300      -0.02307900      -0.02272800
P        0.47768719      -1.24731945       4.28836153       0.00000000 NULL      -0.00659500       0.03122600      -0.00862100
P        2.48266209      -0.39662421       1.44096760       0.00000000 NULL      -0.00659600      -0.00814500       0.03135300
P        0.49441384       2.25723533       3.21549215       0.00000000 NULL       0.00659300       0.01054700       0.00106200
P        2.49938874       1.47377664       0.34707706       0.00000000 NULL       0.00659500      -0.00619400       0.00860400
P        4.50436363       4.34962633       1.10278948       0.00000000 NULL       0.00659700      -0.00435600      -0.00967000
6
Lattice="5.909519771977448 0.0 0.0 0.0 5.420607473604543 -4.798116832693338e-15 0.0 -2.7103037368022673 4.6943837760853215" Properties=species:S:1:pos:R:3:initial_magmoms:R:1:castep_labels:S:1:forces:R:3 n_minim_iter=12 energy=-30.45221126938 stress="0.0005762219883282808 0.0 0.0 0.0 0.0006348749362458276 -0.0 0.0 -0.0 0.0006349414361867772" free_energy=-30.45221126938 pbc="T T T"
P        4.39802226       1.64276436       3.61044061       0.00000000 NULL       0.01821200       0.00353400       0.02638400
P        0.45834241      -1.23781173       4.31183914       0.00000000 NULL       0.01821100      -0.02461200      -0.01012900
P        2.42818233      -0.40495264       1.46648780       0.00000000 NULL       0.01820800       0.02108200      -0.01625200
P        0.49672414       2.30364776       3.22760310       0.00000000 NULL      -0.01821200       0.02180700       0.01737900
P        2.46656406       1.47359731       0.38121593       0.00000000 NULL      -0.01821100      -0.02595600       0.01019800
P        4.43640399       4.35366613       1.08556474       0.00000000 NULL      -0.01820800       0.00414600      -0.02758100
6
Lattice="5.911968024672956 0.0 0.0 0.0 5.420580462860515 -5.642210784641869e-15 0.0 -2.710290231430253 4.69436038409482" Properties=species:S:1:pos:R:3:initial_magmoms:R:1:castep_labels:S:1:forces:R:3 n_minim_iter=13 energy=-30.45236149538 stress="0.00034811949853523364 0.0 -0.0 0.0 3.709197635720076e-05 -0.0 -0.0 -0.0 3.7025503281291796e-05" free_energy=-30.45236149538 pbc="T T T"
P        4.40109458       1.64037831       3.61207053       0.00000000 NULL       0.00718100       0.00639800      -0.00097100
P        0.45978257      -1.23804377       4.30893441       0.00000000 NULL       0.00718000      -0.00235700       0.00602500
P        2.43043857      -0.40233455       1.46771583       0.00000000 NULL       0.00718100      -0.00403600      -0.00505600
P        0.49567969       2.30447449       3.22909788       0.00000000 NULL      -0.00718100      -0.00277700      -0.00334100
P        2.46633570       1.47186242       0.38118451       0.00000000 NULL      -0.00718100       0.00427900      -0.00073200
P        4.43699171       4.35453378       1.08407799       0.00000000 NULL      -0.00718000      -0.00150600       0.00407600
