16
Lattice="6.27047 8.059279822094927e-16 8.014775528997185e-16 -2.03694532359104 7.976264402036872 1.7788920709145643e-15 -1.6706578175994704 -3.9514218598724677 7.178457601756505" Properties=species:S:1:pos:R:3:initial_magmoms:R:1:castep_labels:S:1 n_minim_iter=1 pbc="T T T"
P        2.11109827       6.54657477       1.91491315       0.00000000 NULL
P        2.38228182       1.02149777       6.66873327       0.00000000 NULL
P        0.00903735       2.69865881       7.12984078       0.00000000 NULL
P        0.73793908       2.42335528       0.75892305       0.00000000 NULL
P       -0.09940145      -0.61810705       1.28659926       0.00000000 NULL
P        3.11872256      -1.50176701       4.00392830       0.00000000 NULL
P        1.38591049       4.34425937       4.10602319       0.00000000 NULL
P        4.33084074      -0.15067978       4.97667104       0.00000000 NULL
P       -0.31230290       2.63069496       4.74675006       0.00000000 NULL
P       -0.38395981       4.43784256       6.14230970       0.00000000 NULL
P        2.93882904       3.83851032       0.73502596       0.00000000 NULL
P       -1.72493543       6.09531929       2.86018752       0.00000000 NULL
P        2.74315853       1.87591291       0.25641738       0.00000000 NULL
P        2.20227508       2.31658784       2.16765587       0.00000000 NULL
P       -0.19520917      -1.32408081       6.01231286       0.00000000 NULL
P       -0.14071410       4.27030649       0.73742357       0.00000000 NULL
16
Lattice="6.275410347405939 -0.002637457659195595 0.0009587757651360104 -2.041905123603536 7.9908578877720435 0.0007915634593445588 -1.669214447483154 -3.956531597600074 7.194604733955853" Properties=species:S:1:pos:R:3:initial_magmoms:R:1:castep_labels:S:1 n_minim_iter=2 pbc="T T T"
P        2.11045704       6.55728229       1.92094603       0.00000000 NULL
P        2.38498722       1.02329571       6.68485560       0.00000000 NULL
P        0.00893667       2.70407870       7.14686016       0.00000000 NULL
P        0.73718201       2.42716477       0.76116611       0.00000000 NULL
P       -0.09904970      -0.61893388       1.28948281       0.00000000 NULL
P        3.12228199      -1.50515853       4.01354040       0.00000000 NULL
P        1.38578924       4.35164431       4.11663838       0.00000000 NULL
P        4.33513134      -0.15195575       4.98916858       0.00000000 NULL
P       -0.31290738       2.63605162       4.75823571       0.00000000 NULL
P       -0.38510050       4.44646853       6.15705736       0.00000000 NULL
P        2.93958750       3.84414114       0.73791043       0.00000000 NULL
P       -1.72844149       6.10688329       2.86756829       0.00000000 NULL
P        2.74490423       1.87778284       0.25775702       0.00000000 NULL
P        2.20350914       2.31993699       2.17392023       0.00000000 NULL
P       -0.19400214      -1.32537024       6.02587399       0.00000000 NULL
P       -0.14267403       4.27807781       0.73972333       0.00000000 NULL
16
Lattice="6.358396894251131 -0.049909430940296415 0.017675277476536026 -2.1289947382916448 8.24690934664839 0.017923497122715765 -1.6423985813479622 -4.042871146914563 7.478572276978134" Properties=species:S:1:pos:R:3:initial_magmoms:R:1:castep_labels:S:1 n_minim_iter=3 pbc="T T T"
P        2.09702527       6.74540489       2.03026541       0.00000000 NULL
P        2.43093132       1.05713230       6.97005290       0.00000000 NULL
P        0.00660755       2.80176395       7.44852437       0.00000000 NULL
P        0.72283169       2.49407368       0.80164821       0.00000000 NULL
P       -0.09277696      -0.63294310       1.34025514       0.00000000 NULL
P        3.18301041      -1.56354197       4.18263496       0.00000000 NULL
P        1.38205902       4.48243241       4.30601548       0.00000000 NULL
P        4.40779601      -0.17297214       5.20999061       0.00000000 NULL
P       -0.32379222       2.73198734       4.96229391       0.00000000 NULL
P       -0.40563042       4.60003514       6.41916055       0.00000000 NULL
P        2.95048341       3.94272910       0.79043088       0.00000000 NULL
P       -1.79001052       6.31098344       3.00039446       0.00000000 NULL
P        2.77381747       1.91000058       0.28217152       0.00000000 NULL
P        2.22355381       2.37912737       2.28583653       0.00000000 NULL
P       -0.17269473      -1.34544963       6.26476306       0.00000000 NULL
P       -0.17778893       4.41479204       0.78199997       0.00000000 NULL
16
Lattice="6.323919312952656 -0.0790223973585815 0.011270184304693082 -2.154827533869203 8.308254090954968 0.08361945750891814 -1.6221992720665532 -4.003567114693629 7.527223418441187" Properties=species:S:1:pos:R:3:initial_magmoms:R:1:castep_labels:S:1 n_minim_iter=4 pbc="T T T"
P        2.05614309       6.79504698       2.10482157       0.00000000 NULL
P        2.41060372       1.10673959       7.04699937       0.00000000 NULL
P       -0.01406108       2.87337730       7.54441172       0.00000000 NULL
P        0.69996804       2.51125728       0.82782195       0.00000000 NULL
P       -0.09137691      -0.62740344       1.35046440       0.00000000 NULL
P        3.16716575      -1.55702642       4.20948885       0.00000000 NULL
P        1.34914625       4.53618896       4.38625295       0.00000000 NULL
P        4.38007527      -0.15352841       5.26062953       0.00000000 NULL
P       -0.33823063       2.79042705       5.03588453       0.00000000 NULL
P       -0.42845035       4.67718431       6.51684348       0.00000000 NULL
P        2.91469087       3.96183190       0.82885074       0.00000000 NULL
P       -1.81306836       6.38187070       3.08118558       0.00000000 NULL
P        2.75463959       1.90886564       0.29864175       0.00000000 NULL
P        2.20029320       2.40152811       2.33171134       0.00000000 NULL
P       -0.17344498      -1.30429607       6.31507195       0.00000000 NULL
P       -0.20001457       4.45258037       0.82385078       0.00000000 NULL
16
Lattice="6.239310094135625 -0.12126308352508529 -0.008768865615579973 -2.181074135604871 8.357562804054414 0.19549899733290682 -1.595978852653047 -3.9151119655377062 7.5475217356507205" Properties=species:S:1:pos:R:3:initial_magmoms:R:1:castep_labels:S:1 n_minim_iter=5 pbc="T T T"
P        1.98187827       6.83811833       2.20770357       0.00000000 NULL
P        2.35740703       1.18412268       7.11247989       0.00000000 NULL
P       -0.05614002       2.97480737       7.64124571       0.00000000 NULL
P        0.66088411       2.52581689       0.86308263       0.00000000 NULL
P       -0.09088127      -0.61395024       1.35648046       0.00000000 NULL
P        3.12023562      -1.53380694       4.21441407       0.00000000 NULL
P        1.28637223       4.59938769       4.48126402       0.00000000 NULL
P        4.30742679      -0.11679564       5.29408453       0.00000000 NULL
P       -0.36540763       2.87088361       5.11727439       0.00000000 NULL
P       -0.46967423       4.77614424       6.62536885       0.00000000 NULL
P        2.84489087       3.97143768       0.88181453       0.00000000 NULL
P       -1.84230305       6.45923530       3.19248070       0.00000000 NULL
P        2.71171242       1.89830668       0.31980983       0.00000000 NULL
P        2.15067885       2.42634432       2.38409742       0.00000000 NULL
P       -0.18404847      -1.22826972       6.34705369       0.00000000 NULL
P       -0.23298510       4.48776734       0.88709436       0.00000000 NULL
16
Lattice="5.947975232753415 -0.24973886521810992 -0.09319433047995765 -2.249860625381618 8.475201244390291 0.5182954001429004 -1.5340475690465603 -3.6526569606924615 7.586921159841078" Properties=species:S:1:pos:R:3:initial_magmoms:R:1:castep_labels:S:1 n_minim_iter=6 pbc="T T T"
P        1.73459442       6.93787663       2.48241821       0.00000000 NULL
P        2.16018325       1.39291746       7.25822268       0.00000000 NULL
P       -0.20932779       3.24522133       7.88599853       0.00000000 NULL
P        0.53485373       2.55910747       0.95378168       0.00000000 NULL
P       -0.09197775      -0.57074894       1.36853255       0.00000000 NULL
P        2.94586999      -1.47066663       4.19847393       0.00000000 NULL
P        1.07216474       4.76143240       4.72990162       0.00000000 NULL
P        4.04448859      -0.02103213       5.35105483       0.00000000 NULL
P       -0.46477716       3.09354629       5.33322175       0.00000000 NULL
P       -0.61514496       5.03726903       6.90186458       0.00000000 NULL
P        2.61223859       3.98239600       1.01936322       0.00000000 NULL
P       -1.93279335       6.65988582       3.50303588       0.00000000 NULL
P        2.56604842       1.85710878       0.36939534       0.00000000 NULL
P        1.97946221       2.48610835       2.51650388       0.00000000 NULL
P       -0.23836427      -1.01161232       6.41319067       0.00000000 NULL
P       -0.33601074       4.57789236       1.06364217       0.00000000 NULL
16
Lattice="5.85732979572425 -0.27566338378415073 -0.16770367460804922 -2.2533916231404514 8.562766085480673 0.4608694801063457 -1.5788585561635036 -3.758422461757507 7.775781665425513" Properties=species:S:1:pos:R:3:initial_magmoms:R:1:castep_labels:S:1 n_minim_iter=7 pbc="T T T"
P        1.65164467       6.97896805       2.43998602       0.00000000 NULL
P        2.06504136       1.32708568       7.32299685       0.00000000 NULL
P       -0.30394843       3.17846933       7.97865630       0.00000000 NULL
P        0.48177377       2.57224547       0.92511911       0.00000000 NULL
P       -0.09681295      -0.57966864       1.39247404       0.00000000 NULL
P        2.85397897      -1.54514705       4.24096434       0.00000000 NULL
P        0.98231039       4.75473739       4.75585206       0.00000000 NULL
P        3.92569214      -0.09214487       5.39293995       0.00000000 NULL
P       -0.52742886       3.08937650       5.40373658       0.00000000 NULL
P       -0.69295647       5.01121941       6.94041748       0.00000000 NULL
P        2.53730111       4.00343275       0.97757001       0.00000000 NULL
P       -1.97193094       6.69409113       3.51486163       0.00000000 NULL
P        2.53289613       1.85130679       0.33786478       0.00000000 NULL
P        1.91937492       2.47343664       2.52435182       0.00000000 NULL
P       -0.30988717      -1.08412447       6.51638218       0.00000000 NULL
P       -0.37019271       4.63266668       1.03545763       0.00000000 NULL
16
Lattice="5.773622237973968 -0.2708894176883815 -0.19601421055738877 -2.220126790658215 8.458577077301799 0.5149571482960705 -1.591974518800561 -3.668446745057911 7.649776206111748" Properties=species:S:1:pos:R:3:initial_magmoms:R:1:castep_labels:S:1 n_minim_iter=8 pbc="T T T"
P        1.61875693       6.90865828       2.44194093       0.00000000 NULL
P        2.00971460       1.35181780       7.21176905       0.00000000 NULL
P       -0.33336026       3.17998508       7.88067389       0.00000000 NULL
P        0.46407857       2.54591566       0.92038088       0.00000000 NULL
P       -0.09951676      -0.56265252       1.36857897       0.00000000 NULL
P        2.79126544      -1.50369721       4.15371869       0.00000000 NULL
P        0.94746814       4.72313663       4.71488322       0.00000000 NULL
P        3.84620874      -0.05884674       5.29643695       0.00000000 NULL
P       -0.54302346       3.08807239       5.34975624       0.00000000 NULL
P       -0.70860777       4.98232667       6.86342124       0.00000000 NULL
P        2.49639990       3.96113820       0.97898436       0.00000000 NULL
P       -1.95963796       6.63054154       3.51127387       0.00000000 NULL
P        2.50036310       1.82931023       0.33659492       0.00000000 NULL
P        1.88390795       2.45722547       2.49621792       0.00000000 NULL
P       -0.33733189      -1.03382812       6.41319157       0.00000000 NULL
P       -0.37131108       4.58751685       1.04938099       0.00000000 NULL
16
Lattice="5.7824315793525365 -0.2740023526911642 -0.20018657659489522 -2.226948247323117 8.506557148394043 0.514889446121349 -1.597136496821809 -3.6921663506894413 7.696043485082833" Properties=species:S:1:pos:R:3:initial_magmoms:R:1:castep_labels:S:1 n_minim_iter=9 pbc="T T T"
P        1.61616637       6.94681411       2.45536168       0.00000000 NULL
P        2.01249728       1.35527077       7.24817975       0.00000000 NULL
P       -0.33872736       3.19031402       7.92273413       0.00000000 NULL
P        0.45803905       2.55924808       0.92133999       0.00000000 NULL
P       -0.09837647      -0.56398928       1.37445719       0.00000000 NULL
P        2.79200844      -1.51663102       4.17448201       0.00000000 NULL
P        0.94439193       4.74684324       4.74184444       0.00000000 NULL
P        3.84951686      -0.06181364       5.32541748       0.00000000 NULL
P       -0.54838338       3.10650194       5.38057795       0.00000000 NULL
P       -0.71337548       5.00503413       6.89387417       0.00000000 NULL
P        2.49716665       3.98315228       0.98463094       0.00000000 NULL
P       -1.96839625       6.66578791       3.52951402       0.00000000 NULL
P        2.50659763       1.83683859       0.34004762       0.00000000 NULL
P        1.88636831       2.46843787       2.51199816       0.00000000 NULL
P       -0.34247459      -1.04288883       6.44658822       0.00000000 NULL
P       -0.37638712       4.61758631       1.05400255       0.00000000 NULL
16
Lattice="5.767764612705773 -0.27476971338360706 -0.20766988272103395 -2.223159833161539 8.507074134632049 0.5233983436104518 -1.601312092501883 -3.686624492611025 7.689793639474627" Properties=species:S:1:pos:R:3:initial_magmoms:R:1:castep_labels:S:1 n_minim_iter=10 pbc="T T T"
P        1.60726807       6.94920293       2.45989919       0.00000000 NULL
P        2.00271963       1.35952598       7.23876801       0.00000000 NULL
P       -0.34688746       3.19238060       7.91811079       0.00000000 NULL
P        0.45054927       2.55958992       0.91935910       0.00000000 NULL
P       -0.09801100      -0.56104209       1.37146680       0.00000000 NULL
P        2.77867121      -1.51568070       4.16482723       0.00000000 NULL
P        0.93543067       4.74973958       4.74360479       0.00000000 NULL
P        3.83385580      -0.05796332       5.31721943       0.00000000 NULL
P       -0.55409001       3.11385030       5.38132392       0.00000000 NULL
P       -0.71824325       5.00696007       6.88704553       0.00000000 NULL
P        2.48817325       3.98422946       0.98659789       0.00000000 NULL
P       -1.96996602       6.66775951       3.53413345       0.00000000 NULL
P        2.50250655       1.83533915       0.34158085       0.00000000 NULL
P        1.87993284       2.46916579       2.51239765       0.00000000 NULL
P       -0.35032777      -1.03867255       6.43829220       0.00000000 NULL
P       -0.37944111       4.62262198       1.05754095       0.00000000 NULL
16
Lattice="5.682200833548466 -0.2827338720835076 -0.2512386130775797 -2.20549536713378 8.5359592739389 0.5661442273733907 -1.6233740330409536 -3.6717977651450027 7.667312835750532" Properties=species:S:1:pos:R:3:initial_magmoms:R:1:castep_labels:S:1 n_minim_iter=11 pbc="T T T"
P        1.55053303       6.98201769       2.48815423       0.00000000 NULL
P        1.94949378       1.37938794       7.18949019       0.00000000 NULL
P       -0.39473887       3.20196769       7.89770394       0.00000000 NULL
P        0.40047541       2.56780754       0.90420347       0.00000000 NULL
P       -0.09367499      -0.54402529       1.35360851       0.00000000 NULL
P        2.70009131      -1.52183105       4.11361898       0.00000000 NULL
P        0.88069533       4.77562229       4.76049244       0.00000000 NULL
P        3.74263417      -0.04151460       5.27744172       0.00000000 NULL
P       -0.58983695       3.16530766       5.39252383       0.00000000 NULL
P       -0.74620322       5.02318279       6.84430426       0.00000000 NULL
P        2.43289407       4.00122199       0.99922461       0.00000000 NULL
P       -1.98419488       6.69549954       3.56043960       0.00000000 NULL
P        2.48057075       1.82924788       0.35415930       0.00000000 NULL
P        1.84281775       2.47616710       2.51910719       0.00000000 NULL
P       -0.39643140      -1.02404308       6.39627273       0.00000000 NULL
P       -0.40178084       4.67037838       1.07687188       0.00000000 NULL
16
Lattice="5.616785839139766 -0.33491633823324873 -0.21383515678202747 -2.2506234644226857 8.656790371402918 0.49183192123736286 -1.5302422367928232 -3.765300732924394 7.578139543325747" Properties=species:S:1:pos:R:3:initial_magmoms:R:1:castep_labels:S:1 n_minim_iter=12 pbc="T T T"
P        1.47232018       7.05279672       2.47456435       0.00000000 NULL
P        2.00928473       1.30452539       7.05523171       0.00000000 NULL
P       -0.35915696       3.12673280       7.74923283       0.00000000 NULL
P        0.30812741       2.58844806       0.84242642       0.00000000 NULL
P       -0.05701859      -0.52831615       1.30505803       0.00000000 NULL
P        2.67995130      -1.61913413       4.05716713       0.00000000 NULL
P        0.85640156       4.78789934       4.72914256       0.00000000 NULL
P        3.72625555      -0.10282963       5.23106525       0.00000000 NULL
P       -0.59528663       3.21642193       5.32091106       0.00000000 NULL
P       -0.70713771       4.98786176       6.61534009       0.00000000 NULL
P        2.36941875       4.03078006       1.01112159       0.00000000 NULL
P       -2.02404460       6.75402677       3.45944583       0.00000000 NULL
P        2.47940098       1.81628603       0.41912826       0.00000000 NULL
P        1.83809538       2.45220182       2.51318009       0.00000000 NULL
P       -0.36334042      -1.09801762       6.27374567       0.00000000 NULL
P       -0.45786794       4.78964772       1.04639482       0.00000000 NULL
16
Lattice="5.410921347455723 -0.24704606328465736 -0.30303990134516895 -2.071974773064796 8.472306158471119 0.9123434935995864 -1.6328877928019891 -3.3590886186316933 7.250618091494458" Properties=species:S:1:pos:R:3:initial_magmoms:R:1:castep_labels:S:1 n_minim_iter=13 pbc="T T T"
P        1.46688825       7.06198856       2.73778377       0.00000000 NULL
P        1.86235766       1.63271889       6.90864529       0.00000000 NULL
P       -0.41883885       3.41191120       7.71172725       0.00000000 NULL
P        0.29854489       2.58625504       0.93251567       0.00000000 NULL
P       -0.07417880      -0.45522778       1.24971747       0.00000000 NULL
P        2.49191707      -1.35461732       3.84770301       0.00000000 NULL
P        0.81567652       4.93697379       4.85376725       0.00000000 NULL
P        3.50975034       0.20849864       5.05273907       0.00000000 NULL
P       -0.62289209       3.38740660       5.34859662       0.00000000 NULL
P       -0.70712396       5.17514550       6.68121047       0.00000000 NULL
P        2.31651742       4.03450836       1.14762907       0.00000000 NULL
P       -1.93247540       6.75336929       3.70989446       0.00000000 NULL
P        2.41520706       1.84869162       0.48271365       0.00000000 NULL
P        1.76467012       2.54857329       2.54515028       0.00000000 NULL
P       -0.46380335      -0.78949939       6.07941452       0.00000000 NULL
P       -0.40419041       4.75517312       1.25740677       0.00000000 NULL
16
Lattice="5.581172225223948 -0.28553042329573336 -0.24844885579804304 -2.1762338094845184 8.744973897893837 0.7160757995358511 -1.5915007058037403 -3.638397335921824 7.587935633285301" Properties=species:S:1:pos:R:3:initial_magmoms:R:1:castep_labels:S:1 n_minim_iter=14 pbc="T T T"
P        1.49935404       7.21994725       2.68569953       0.00000000 NULL
P        1.98316157       1.50367490       7.14335245       0.00000000 NULL
P       -0.37103101       3.33128661       7.91498823       0.00000000 NULL
P        0.29956449       2.64643076       0.90727670       0.00000000 NULL
P       -0.05946992      -0.49600932       1.30094274       0.00000000 NULL
P        2.61697382      -1.51023768       4.05362809       0.00000000 NULL
P        0.86549226       4.97469074       4.92723925       0.00000000 NULL
P        3.66905563       0.06928474       5.27450477       0.00000000 NULL
P       -0.60898599       3.37065044       5.45927756       0.00000000 NULL
P       -0.69036558       5.18939620       6.79421409       0.00000000 NULL
P        2.37957188       4.12589863       1.11778237       0.00000000 NULL
P       -1.99330958       6.89382134       3.66744873       0.00000000 NULL
P        2.48905270       1.88031050       0.48532723       0.00000000 NULL
P        1.83300109       2.55474174       2.60231569       0.00000000 NULL
P       -0.41021570      -0.96654595       6.32023526       0.00000000 NULL
P       -0.42940053       4.88629943       1.18792577       0.00000000 NULL
16
Lattice="5.547004925957795 -0.28483440990732767 -0.2394323190556471 -2.164249299986314 8.66679145470112 0.6811910693385833 -1.5725138595501882 -3.6287228306981647 7.525418570079816" Properties=species:S:1:pos:R:3:initial_magmoms:R:1:castep_labels:S:1 n_minim_iter=15 pbc="T T T"
P        1.49147784       7.14859534       2.64170635       0.00000000 NULL
P        1.97997571       1.46673405       7.07187662       0.00000000 NULL
P       -0.35995747       3.27639957       7.82926149       0.00000000 NULL
P        0.29684618       2.62075507       0.89071777       0.00000000 NULL
P       -0.05701900      -0.49525094       1.28921730       0.00000000 NULL
P        2.60517412      -1.50993739       4.02255673       0.00000000 NULL
P        0.86473748       4.91606751       4.87002955       0.00000000 NULL
P        3.65192255       0.05086104       5.22739892       0.00000000 NULL
P       -0.60099422       3.32568532       5.39798252       0.00000000 NULL
P       -0.67859534       5.12148326       6.71120539       0.00000000 NULL
P        2.36563984       4.08456442       1.09756588       0.00000000 NULL
P       -1.97969844       6.82250373       3.60976555       0.00000000 NULL
P        2.47501360       1.86259290       0.48075777       0.00000000 NULL
P        1.82434948       2.52246060       2.57155472       0.00000000 NULL
P       -0.40110308      -0.97753613       6.26302652       0.00000000 NULL
P       -0.42672268       4.84118282       1.16250827       0.00000000 NULL
16
Lattice="5.543051680396209 -0.286407862874452 -0.23074853919647567 -2.164966587818051 8.649110060371713 0.6483267170399318 -1.5605278293811273 -3.6463295039245636 7.522405168636963" Properties=species:S:1:pos:R:3:initial_magmoms:R:1:castep_labels:S:1 n_minim_iter=16 pbc="T T T"
P        1.49100580       7.12655977       2.61670857       0.00000000 NULL
P        1.98864894       1.43810647       7.05481413       0.00000000 NULL
P       -0.34987977       3.24175684       7.80366119       0.00000000 NULL
P        0.29493502       2.61298716       0.88034961       0.00000000 NULL
P       -0.05432944      -0.49777793       1.28724546       0.00000000 NULL
P        2.60801799      -1.52125836       4.02402155       0.00000000 NULL
P        0.86934345       4.89038337       4.84965393       0.00000000 NULL
P        3.65526608       0.03173321       5.22199309       0.00000000 NULL
P       -0.59612430       3.30163065       5.37686708       0.00000000 NULL
P       -0.67017260       5.08825758       6.67882380       0.00000000 NULL
P        2.36431714       4.07177821       1.08552459       0.00000000 NULL
P       -1.97713039       6.79763489       3.57790413       0.00000000 NULL
P        2.47485309       1.85707584       0.48001770       0.00000000 NULL
P        1.82569487       2.50685090       2.56153300       0.00000000 NULL
P       -0.39301068      -0.99738912       6.25452402       0.00000000 NULL
P       -0.42671448       4.83000843       1.14508775       0.00000000 NULL
16
Lattice="5.539549975262543 -0.28732388434846357 -0.21977053667645927 -2.164994280730711 8.634034896778733 0.6126852253411487 -1.5464499589862575 -3.6673368928433403 7.525328675652789" Properties=species:S:1:pos:R:3:initial_magmoms:R:1:castep_labels:S:1 n_minim_iter=17 pbc="T T T"
P        1.49185118       7.10776328       2.59375937       0.00000000 NULL
P        2.00162490       1.40739569       7.04083137       0.00000000 NULL
P       -0.33598038       3.20414292       7.78212782       0.00000000 NULL
P        0.29151143       2.60633920       0.86955399       0.00000000 NULL
P       -0.05037771      -0.50008025       1.28532394       0.00000000 NULL
P        2.61109198      -1.53316628       4.02994404       0.00000000 NULL
P        0.87693332       4.86577386       4.83512498       0.00000000 NULL
P        3.65998557       0.01240995       5.22128182       0.00000000 NULL
P       -0.59051238       3.27665152       5.35802245       0.00000000 NULL
P       -0.65803268       5.05416158       6.64741674       0.00000000 NULL
P        2.36422929       4.06048122       1.07477275       0.00000000 NULL
P       -1.97411222       6.77351997       3.54542031       0.00000000 NULL
P        2.47698849       1.85304465       0.48295410       0.00000000 NULL
P        1.82833196       2.49082589       2.55428875       0.00000000 NULL
P       -0.38357813      -1.01997435       6.25035550       0.00000000 NULL
P       -0.42616342       4.82209827       1.12830436       0.00000000 NULL
16
Lattice="5.532898936904339 -0.2844713066217835 -0.21626992534482767 -2.159205126862482 8.628667374121484 0.6144930213104961 -1.542467982951535 -3.663246518737038 7.522485083945116" Properties=species:S:1:pos:R:3:initial_magmoms:R:1:castep_labels:S:1 n_minim_iter=18 pbc="T T T"
P        1.49321132       7.10855727       2.60024553       0.00000000 NULL
P        2.00667645       1.40794731       7.03633035       0.00000000 NULL
P       -0.32873086       3.20077400       7.78085876       0.00000000 NULL
P        0.28802682       2.60634899       0.86954167       0.00000000 NULL
P       -0.04798861      -0.49788117       1.28288752       0.00000000 NULL
P        2.60652632      -1.52804038       4.03066228       0.00000000 NULL
P        0.88172530       4.86669367       4.84434494       0.00000000 NULL
P        3.65649916       0.01768664       5.22167845       0.00000000 NULL
P       -0.58903789       3.27524173       5.35717998       0.00000000 NULL
P       -0.64994309       5.05176518       6.64334909       0.00000000 NULL
P        2.36409493       4.05997603       1.07899423       0.00000000 NULL
P       -1.97035893       6.76942533       3.54488959       0.00000000 NULL
P        2.47882733       1.85507359       0.49135701       0.00000000 NULL
P        1.82825805       2.48959831       2.55777296       0.00000000 NULL
P       -0.38218483      -1.01870796       6.24847944       0.00000000 NULL
P       -0.42394682       4.82408214       1.13250789       0.00000000 NULL
16
Lattice="5.477438490499236 -0.2518302566242544 -0.1803961700852257 -2.0996683549634763 8.594892300278971 0.6340685572309561 -1.5071923017009021 -3.632358528084902 7.5124379015412845" Properties=species:S:1:pos:R:3:initial_magmoms:R:1:castep_labels:S:1 n_minim_iter=19 pbc="T T T"
P        1.51458014       7.13895914       2.67335107       0.00000000 NULL
P        2.06595763       1.41659726       7.00324003       0.00000000 NULL
P       -0.25143567       3.17113302       7.78606199       0.00000000 NULL
P        0.25327192       2.61368630       0.87125433       0.00000000 NULL
P       -0.02286580      -0.47614206       1.25958383       0.00000000 NULL
P        2.56306791      -1.47574759       4.04910835       0.00000000 NULL
P        0.93873746       4.88998143       4.95582651       0.00000000 NULL
P        3.62815977       0.07578632       5.23820824       0.00000000 NULL
P       -0.57492312       3.26600437       5.35987928       0.00000000 NULL
P       -0.56584925       5.04068211       6.61866618       0.00000000 NULL
P        2.37193775       4.06811248       1.12573346       0.00000000 NULL
P       -1.93349774       6.74228592       3.54660087       0.00000000 NULL
P        2.50801431       1.88326372       0.58152570       0.00000000 NULL
P        1.83190743       2.48421004       2.60182561       0.00000000 NULL
P       -0.37093670      -1.00949459       6.24579010       0.00000000 NULL
P       -0.39909744       4.85904026       1.17978903       0.00000000 NULL
