12
Lattice="6.856599999999999 -1.107196869858776e-15 -1.452426073475511e-16 2.3985303058454535 6.4233959812501755 -4.756346654251844e-16 2.398530305845455 1.664666992072894 6.203942273864569" Properties=species:S:1:pos:R:3:initial_magmoms:R:1:castep_labels:S:1 n_minim_iter=1 pbc="T T T"
P        8.78741464       3.05344192       3.76340754       0.00000000 NULL
P        5.93447873       5.49145350       5.94401384       0.00000000 NULL
P        7.22046020       6.68389349       1.97380905       0.00000000 NULL
P        9.59766712       4.25305409       5.20792416       0.00000000 NULL
P        7.34173585       6.97458156       5.89748117       0.00000000 NULL
P        9.10216070       6.84615369       2.75808041       0.00000000 NULL
P        6.57424735       1.09537524       0.79509848       0.00000000 NULL
P        3.32592836       2.26474775       5.37232490       0.00000000 NULL
P        3.28511385       5.79094600       0.85189681       0.00000000 NULL
P        6.92033026       5.31441259       0.10964227       0.00000000 NULL
P        7.39946888       1.30424982       4.43765323       0.00000000 NULL
P        3.81027964       5.96426958       5.10443248       0.00000000 NULL
12
Lattice="6.8746970264501694 -0.0004241652930945858 -0.0003253556508651017 2.404463521250666 6.440498005618341 -0.0003253556508664437 2.4044635212506664 1.6687848586755571 6.2205443300152865" Properties=species:S:1:pos:R:3:initial_magmoms:R:1:castep_labels:S:1 n_minim_iter=2 pbc="T T T"
P        8.81016649       3.06089071       3.77279272       0.00000000 NULL
P        5.94941581       5.50536652       5.95965112       0.00000000 NULL
P        7.23871938       6.70136169       1.97857112       0.00000000 NULL
P        9.62233941       4.26383754       5.22149622       0.00000000 NULL
P        7.36046869       6.99270236       5.91264437       0.00000000 NULL
P        9.12568962       6.86370409       2.76497815       0.00000000 NULL
P        6.59131296       1.09819210       0.79690975       0.00000000 NULL
P        3.33453703       2.27038501       5.38634498       0.00000000 NULL
P        3.29340637       5.80606607       0.85414803       0.00000000 NULL
P        6.93831596       5.32822488       0.10984167       0.00000000 NULL
P        7.41870014       1.30755686       4.44920860       0.00000000 NULL
P        3.82010510       5.97979938       5.11772120       0.00000000 NULL
12
Lattice="7.279095995822334 -0.012568610183345444 -0.009640742449379585 2.534550533062534 6.823595099484663 -0.009640742449380813 2.5345505330625344 1.7590699612372616 6.592967154256026" Properties=species:S:1:pos:R:3:initial_magmoms:R:1:castep_labels:S:1 n_minim_iter=3 pbc="T T T"
P        9.31624968       3.22398052       3.98049541       0.00000000 NULL
P        6.27923617       5.81405642       6.30863243       0.00000000 NULL
P        7.64328164       7.09051022       2.08226143       0.00000000 NULL
P       10.17024145       4.50135970       5.52319692       0.00000000 NULL
P        7.77464752       7.39558398       6.24995585       0.00000000 NULL
P        9.64800223       7.25352321       2.91619763       0.00000000 NULL
P        6.97180456       1.15901602       0.83555650       0.00000000 NULL
P        3.52461911       2.39457428       5.70005314       0.00000000 NULL
P        3.47624253       6.14394663       0.90287835       0.00000000 NULL
P        7.33824862       5.63562530       0.11159071       0.00000000 NULL
P        7.84658061       1.37847520       4.70676074       0.00000000 NULL
P        4.03622108       6.32600528       5.41416608       0.00000000 NULL
12
Lattice="7.439784633728959 -0.05594015123363581 -0.04290884853263271 2.5501302643201558 6.9893032794254975 -0.04290884853263481 2.5501302643201558 1.7698828595803524 6.761635613106792" Properties=species:S:1:pos:R:3:initial_magmoms:R:1:castep_labels:S:1 n_minim_iter=4 pbc="T T T"
P        9.48501213       3.24062355       4.03747465       0.00000000 NULL
P        6.35386305       5.90855286       6.44094133       0.00000000 NULL
P        7.75791322       7.22785025       2.08356930       0.00000000 NULL
P       10.33858687       4.54436312       5.61930407       0.00000000 NULL
P        7.87382343       7.52538055       6.36284096       0.00000000 NULL
P        9.80429123       7.37486296       2.93282502       0.00000000 NULL
P        7.11093534       1.15025253       0.82523827       0.00000000 NULL
P        3.56507911       2.41918165       5.83157540       0.00000000 NULL
P        3.51344864       6.27856765       0.89708830       0.00000000 NULL
P        7.46839136       5.73998839       0.07018257       0.00000000 NULL
P        7.98987564       1.36061703       4.79998648       0.00000000 NULL
P        4.06961772       6.45245457       5.52569483       0.00000000 NULL
12
Lattice="7.459470966516024 -0.11118730488376585 -0.08528613381975682 2.505260200596003 7.027072010757577 -0.08528613381975826 2.5052602005960036 1.7387414085710537 6.809096348496969" Properties=species:S:1:pos:R:3:initial_magmoms:R:1:castep_labels:S:1 n_minim_iter=5 pbc="T T T"
P        9.46419305       3.17931922       4.01182915       0.00000000 NULL
P        6.28914916       5.88428665       6.44946256       0.00000000 NULL
P        7.71254238       7.22256880       2.03100562       0.00000000 NULL
P       10.29455826       4.48252901       5.60118335       0.00000000 NULL
P        7.80049423       7.50279518       6.34859080       0.00000000 NULL
P        9.75748129       7.34534406       2.87779956       0.00000000 NULL
P        7.11187344       1.10661567       0.79130052       0.00000000 NULL
P        3.52452741       2.39058709       5.85596265       0.00000000 NULL
P        3.47247518       6.29486873       0.86373748       0.00000000 NULL
P        7.44754147       5.72943420       0.01144405       0.00000000 NULL
P        7.97269471       1.29978010       4.79990958       0.00000000 NULL
P        4.00661438       6.45372432       5.53072371       0.00000000 NULL
12
Lattice="7.4247404778763615 -0.16303113896781798 -0.12505290553928067 2.4445427013912724 7.01267148076705 -0.12505290553928214 2.4445427013912733 1.6966012627821934 6.805493639808443" Properties=species:S:1:pos:R:3:initial_magmoms:R:1:castep_labels:S:1 n_minim_iter=6 pbc="T T T"
P        9.37726763       3.09697789       3.95921330       0.00000000 NULL
P        6.18160253       5.81982915       6.41226706       0.00000000 NULL
P        7.61453610       7.16637706       1.96511322       0.00000000 NULL
P       10.17780564       4.39098643       5.54476877       0.00000000 NULL
P        7.67389374       7.42826135       6.28850047       0.00000000 NULL
P        9.64337001       7.26332722       2.80400474       0.00000000 NULL
P        7.06143827       1.05667529       0.75429309       0.00000000 NULL
P        3.46009940       2.34712663       5.83679193       0.00000000 NULL
P        3.40922279       6.26465091       0.82509403       0.00000000 NULL
P        7.37510800       5.67754677      -0.04412489       0.00000000 NULL
P        7.89874736       1.23322797       4.76630268       0.00000000 NULL
P        3.91839928       6.40934580       5.49501007       0.00000000 NULL
12
Lattice="7.355028405816513 -0.26669769416204564 -0.2045702542884996 2.3230396457159412 6.983627804720919 -0.20457025428850248 2.3230396457159412 1.6122737369945117 6.7980496983185175" Properties=species:S:1:pos:R:3:initial_magmoms:R:1:castep_labels:S:1 n_minim_iter=7 pbc="T T T"
P        9.20478449       2.92814308       3.85239202       0.00000000 NULL
P        5.96309790       5.69008738       6.34092839       0.00000000 NULL
P        7.41655565       7.05618834       1.82973007       0.00000000 NULL
P        9.94012219       4.20812039       5.43639012       0.00000000 NULL
P        7.41943645       7.28245789       6.16331192       0.00000000 NULL
P        9.41776594       7.09385579       2.65547334       0.00000000 NULL
P        6.95815323       0.95777827       0.68364398       0.00000000 NULL
P        3.33132026       2.26278102       5.79506101       0.00000000 NULL
P        3.28515752       6.20072679       0.74788500       0.00000000 NULL
P        7.23264721       5.57055840      -0.15107167       0.00000000 NULL
P        7.74868389       1.10504710       4.70126557       0.00000000 NULL
P        3.74582275       6.32171822       5.41939293       0.00000000 NULL
12
Lattice="7.294659049119217 -0.30628163619624954 -0.23493308555751746 2.264838632711332 6.940919611358873 -0.23493308555752074 2.264838632711332 1.5718801238648972 6.76466935498212" Properties=species:S:1:pos:R:3:initial_magmoms:R:1:castep_labels:S:1 n_minim_iter=8 pbc="T T T"
P        9.09875104       2.84041189       3.78985974       0.00000000 NULL
P        5.84381770       5.61190177       6.29083463       0.00000000 NULL
P        7.30158404       6.98593484       1.76120186       0.00000000 NULL
P        9.79551233       4.11872636       5.37902882       0.00000000 NULL
P        7.28510392       7.20005163       6.07753543       0.00000000 NULL
P        9.29357484       6.98586683       2.58399901       0.00000000 NULL
P        6.88245005       0.91525708       0.65915697       0.00000000 NULL
P        3.26500360       2.22460596       5.74727604       0.00000000 NULL
P        3.22619594       6.14193464       0.71316252       0.00000000 NULL
P        7.14877171       5.49819264      -0.18483604       0.00000000 NULL
P        7.65154947       1.05863316       4.65857383       0.00000000 NULL
P        3.66836235       6.26111015       5.35824980       0.00000000 NULL
12
Lattice="7.298843608919549 -0.31445127779360454 -0.24119960265009366 2.2586489688098363 6.947697638014053 -0.24119960265009563 2.2586489688098377 1.567584272708156 6.772839822817501" Properties=species:S:1:pos:R:3:initial_magmoms:R:1:castep_labels:S:1 n_minim_iter=9 pbc="T T T"
P        9.09851454       2.82873672       3.78533010       0.00000000 NULL
P        5.83279744       5.60852789       6.29573913       0.00000000 NULL
P        7.29456829       6.98830211       1.75109946       0.00000000 NULL
P        9.78810784       4.11108490       5.38107296       0.00000000 NULL
P        7.27535506       7.20092100       6.07288776       0.00000000 NULL
P        9.29097900       6.97893227       2.57608886       0.00000000 NULL
P        6.88221586       0.90954295       0.65689881       0.00000000 NULL
P        3.25956857       2.22288612       5.74957996       0.00000000 NULL
P        3.22268351       6.14299622       0.70822882       0.00000000 NULL
P        7.14860546       5.49541304      -0.19035977       0.00000000 NULL
P        7.64888733       1.05350977       4.66079404       0.00000000 NULL
P        3.66263141       6.26307266       5.35699667       0.00000000 NULL
12
Lattice="7.2888641094875 -0.32193211400099125 -0.24693777211587659 2.248149813972767 6.9409655456956685 -0.24693777211588036 2.2481498139727676 1.5602974785995571 6.767824816594158" Properties=species:S:1:pos:R:3:initial_magmoms:R:1:castep_labels:S:1 n_minim_iter=10 pbc="T T T"
P        9.08067150       2.81184768       3.77385948       0.00000000 NULL
P        5.81073373       5.59464827       6.28827336       0.00000000 NULL
P        7.27384741       6.97699299       1.73776012       0.00000000 NULL
P        9.76200346       4.09547106       5.37243573       0.00000000 NULL
P        7.25159605       7.18765665       6.05678189       0.00000000 NULL
P        9.27024148       6.95881087       2.56324686       0.00000000 NULL
P        6.86878913       0.90191256       0.65336497       0.00000000 NULL
P        3.24772342       2.21690497       5.74092510       0.00000000 NULL
P        3.21293666       6.13230348       0.70177494       0.00000000 NULL
P        7.13444598       5.48214655      -0.19569942       0.00000000 NULL
P        7.63150585       1.04611756       4.65384840       0.00000000 NULL
P        3.64962597       6.25281454       5.34556723       0.00000000 NULL
12
Lattice="7.259797100335433 -0.34475990984507615 -0.26444781477051216 2.2165962634612577 6.9217204753070405 -0.2644478147705164 2.2165962634612586 1.5383981705561263 6.753775096481312" Properties=species:S:1:pos:R:3:initial_magmoms:R:1:castep_labels:S:1 n_minim_iter=11 pbc="T T T"
P        9.02810372       2.76077901       3.73954804       0.00000000 NULL
P        5.74450270       5.55337621       6.26685555       0.00000000 NULL
P        7.21201445       6.94396872       1.69732824       0.00000000 NULL
P        9.68413154       4.04887787       5.34734119       0.00000000 NULL
P        7.18070601       7.14873745       6.00856784       0.00000000 NULL
P        9.20898294       6.89856141       2.52474894       0.00000000 NULL
P        6.82902065       0.87891983       0.64304976       0.00000000 NULL
P        3.21227184       2.19937150       5.71538369       0.00000000 NULL
P        3.18410953       6.10061716       0.68224102       0.00000000 NULL
P        7.09251165       5.44252062      -0.21172390       0.00000000 NULL
P        7.57971432       1.02405195       4.63344662       0.00000000 NULL
P        3.61083711       6.22253606       5.31144797       0.00000000 NULL
12
Lattice="7.144769775844836 -0.42956592144770067 -0.32949819855148843 2.0969102502907107 6.843626920933138 -0.32949819855149287 2.0969102502907115 1.455331738144474 6.695207840516889" Properties=species:S:1:pos:R:3:initial_magmoms:R:1:castep_labels:S:1 n_minim_iter=12 pbc="T T T"
P        8.82529788       2.56607339       3.60771900       0.00000000 NULL
P        5.49115449       5.39446457       6.18330219       0.00000000 NULL
P        6.97451835       6.81616763       1.54343909       0.00000000 NULL
P        9.38256737       3.87368689       5.25156646       0.00000000 NULL
P        6.91109253       6.99890234       5.81971966       0.00000000 NULL
P        8.97430010       6.66429110       2.38036400       0.00000000 NULL
P        6.67261557       0.79310946       0.60833440       0.00000000 NULL
P        3.07717043       2.13564893       5.61185509       0.00000000 NULL
P        3.07715271       5.97360212       0.60835906       0.00000000 NULL
P        6.92824059       5.28692084      -0.26792377       0.00000000 NULL
P        7.37648122       0.94399603       4.55194784       0.00000000 NULL
P        3.46474551       6.10173768       5.17572880       0.00000000 NULL
12
Lattice="7.118801884569135 -0.5531286774145436 -0.4242769122863233 1.9720703465026406 6.862523599519958 -0.42427691228632836 1.9720703465026408 1.368688318787593 6.738021470601138" Properties=species:S:1:pos:R:3:initial_magmoms:R:1:castep_labels:S:1 n_minim_iter=13 pbc="T T T"
P        8.70279002       2.37182591       3.50165052       0.00000000 NULL
P        5.26632480       5.27988685       6.16557269       0.00000000 NULL
P        6.78853129       6.75484621       1.38331640       0.00000000 NULL
P        9.16488294       3.70510945       5.18900379       0.00000000 NULL
P        6.67701698       6.90090964       5.69592539       0.00000000 NULL
P        8.80061588       6.49678030       2.23375950       0.00000000 NULL
P        6.59427066       0.68724521       0.55694619       0.00000000 NULL
P        2.95058865       2.07659285       5.59005271       0.00000000 NULL
P        2.97754783       5.92716650       0.51942924       0.00000000 NULL
P        6.81189309       5.18574910      -0.37325022       0.00000000 NULL
P        7.24100165       0.82319270       4.50815325       0.00000000 NULL
P        3.30418204       6.03749878       5.10530963       0.00000000 NULL
12
Lattice="7.017016744936282 -0.5605386736741393 -0.4299607440264722 1.92952271614808 6.7697614205575265 -0.42996074402647527 1.9295227161480815 1.3391587207376774 6.649901492003099" Properties=species:S:1:pos:R:3:initial_magmoms:R:1:castep_labels:S:1 n_minim_iter=14 pbc="T T T"
P        8.56725967       2.31554552       3.44229045       0.00000000 NULL
P        5.16618991       5.19475250       6.07734161       0.00000000 NULL
P        6.67374725       6.65303645       1.34434238       0.00000000 NULL
P        9.01235861       3.63245304       5.10822259       0.00000000 NULL
P        6.55559599       6.79244475       5.60340221       0.00000000 NULL
P        8.65652918       6.38777223       2.18452038       0.00000000 NULL
P        6.49358417       0.66285416       0.54403900       0.00000000 NULL
P        2.89251717       2.04189285       5.51053604       0.00000000 NULL
P        2.92472602       5.83941350       0.49921649       0.00000000 NULL
P        6.70232519       5.10278000      -0.38154233       0.00000000 NULL
P        7.12494628       0.79610433       4.43919584       0.00000000 NULL
P        3.23820741       5.94517672       5.02732411       0.00000000 NULL
12
Lattice="7.0335859495444595 -0.5718619758420018 -0.4386462739525671 1.924710956056627 6.789244815491538 -0.4386462739525713 1.9247109560566278 1.3358191847816407 6.670970156124256" Properties=species:S:1:pos:R:3:initial_magmoms:R:1:castep_labels:S:1 n_minim_iter=15 pbc="T T T"
P        8.58039375       2.30654267       3.44234847       0.00000000 NULL
P        5.16235035       5.19881344       6.09225219       0.00000000 NULL
P        6.67620849       6.66613728       1.33563207       0.00000000 NULL
P        9.01867075       3.62896325       5.11698431       0.00000000 NULL
P        6.55453477       6.80275599       5.60802192       0.00000000 NULL
P        8.66581771       6.39104168       2.17887916       0.00000000 NULL
P        6.50449084       0.65604087       0.54207675       0.00000000 NULL
P        2.88994964       2.04326326       5.52321502       0.00000000 NULL
P        2.92511169       5.85091172       0.49314450       0.00000000 NULL
P        6.71054489       5.10821529      -0.39053739       0.00000000 NULL
P        7.13291352       0.78891944       4.44712789       0.00000000 NULL
P        3.23426352       5.95542345       5.03490484       0.00000000 NULL
12
Lattice="7.025150537348869 -0.5817451024198922 -0.44622711833728096 1.9125014313160809 6.784799607344094 -0.44622711833728523 1.9125014313160815 1.3273453319497832 6.668641445055151" Properties=species:S:1:pos:R:3:initial_magmoms:R:1:castep_labels:S:1 n_minim_iter=16 pbc="T T T"
P        8.56249433       2.28858790       3.43033343       0.00000000 NULL
P        5.13926851       5.18449093       6.08523657       0.00000000 NULL
P        6.65471655       6.65505589       1.32140451       0.00000000 NULL
P        8.99243554       3.61159198       5.10690442       0.00000000 NULL
P        6.52908359       6.78822583       5.59276531       0.00000000 NULL
P        8.64330242       6.37144445       2.16471364       0.00000000 NULL
P        6.49215802       0.64598192       0.53791246       0.00000000 NULL
P        2.87621203       2.03715896       5.51653387       0.00000000 NULL
P        2.91458746       5.84167696       0.48450841       0.00000000 NULL
P        6.69429386       5.09548013      -0.39899330       0.00000000 NULL
P        7.11529815       0.77796148       4.43891787       0.00000000 NULL
P        3.21783579       5.94421062       5.02479617       0.00000000 NULL
12
Lattice="6.941008982353361 -0.6978384875874083 -0.5352764571384712 1.7743090541360713 6.746585182763133 -0.5352764571384735 1.7743090541360738 1.2314348119588496 6.654810351748697" Properties=species:S:1:pos:R:3:initial_magmoms:R:1:castep_labels:S:1 n_minim_iter=17 pbc="T T T"
P        8.37145244       2.08495626       3.29690802       0.00000000 NULL
P        4.88167343       5.02770275       6.01575687       0.00000000 NULL
P        6.41772413       6.53962407       1.15930799       0.00000000 NULL
P        8.70510704       3.41707048       4.99987402       0.00000000 NULL
P        6.24634073       6.63272822       5.42624579       0.00000000 NULL
P        8.39872201       6.15606570       2.00457558       0.00000000 NULL
P        6.36142548       0.52993921       0.49118189       0.00000000 NULL
P        2.72176899       1.97080530       5.44956232       0.00000000 NULL
P        2.79839983       5.74551270       0.38454083       0.00000000 NULL
P        6.51809608       4.95756608      -0.49786790       0.00000000 NULL
P        6.92446125       0.65218986       4.35171174       0.00000000 NULL
P        3.03325320       5.82505390       4.91721795       0.00000000 NULL
