10
Lattice="5.203569999999999 4.515430559419491e-16 5.919109822645936e-16 -2.106252272604981 6.162231854340305 -1.6871419415272981e-15 -1.3442385470341938 -2.0097725362965417 6.768168123585256" Properties=species:S:1:pos:R:3:initial_magmoms:R:1:castep_labels:S:1 n_minim_iter=1 pbc="T T T"
P        3.12522486       2.05495279       1.15409314       0.00000000 NULL
P       -1.23055577       5.06571084       3.52427042       0.00000000 NULL
P        0.77231225       2.85693826       6.52602811       0.00000000 NULL
P        0.52199715       4.09809706       3.47676194       0.00000000 NULL
P        1.15377061       0.06121022       1.90331040       0.00000000 NULL
P       -0.00480970       1.02586084       3.70547120       0.00000000 NULL
P       -2.25958223       4.20169254       5.09345599       0.00000000 NULL
P        4.12828143      -0.68403957       3.78780935       0.00000000 NULL
P        1.86401603       4.17846190       1.68425661       0.00000000 NULL
P        2.55908852      -0.02359195       4.93915529       0.00000000 NULL
10
Lattice="5.2152370049958225 -0.0004495235703646608 -2.6646853206679284e-05 -2.111507073491972 6.170615756191797 -0.0036403723232845625 -1.3471135248090986 -2.0163416026874534 6.77641673386072" Properties=species:S:1:pos:R:3:initial_magmoms:R:1:castep_labels:S:1 n_minim_iter=2 pbc="T T T"
P        3.13194133       2.05678244       1.15411030       0.00000000 NULL
P       -1.23347360       5.07047758       3.52497367       0.00000000 NULL
P        0.77373604       2.85685071       6.53109551       0.00000000 NULL
P        0.52288234       4.10099924       3.47794322       0.00000000 NULL
P        1.15635149       0.06036036       1.90502414       0.00000000 NULL
P       -0.00474900       1.02537977       3.70860891       0.00000000 NULL
P       -2.26498602       4.20415181       5.09661903       0.00000000 NULL
P        4.13717994      -0.68747933       3.79198775       0.00000000 NULL
P        1.86789687       4.18265391       1.68340580       0.00000000 NULL
P        2.56464089      -0.02661651       4.94454966       0.00000000 NULL
10
Lattice="5.523549336449124 -0.012247549195899142 0.0012181779122284549 -2.2502744424566745 6.388287314130284 -0.101283306065372 -1.4205840055144456 -2.189419321354457 6.987862864783438" Properties=species:S:1:pos:R:3:initial_magmoms:R:1:castep_labels:S:1 n_minim_iter=3 pbc="T T T"
P        3.30970116       2.10383368       1.15447094       0.00000000 NULL
P       -1.30887403       5.19287919       3.53933366       0.00000000 NULL
P        0.81381077       2.85214477       6.65900419       0.00000000 NULL
P        0.54772964       4.17451144       3.50592616       0.00000000 NULL
P        1.22522322       0.03795235       1.94891786       0.00000000 NULL
P       -0.00156273       1.01177606       3.78773602       0.00000000 NULL
P       -2.40573562       4.26575055       5.17427236       0.00000000 NULL
P        4.37339773      -0.77820450       3.90055954       0.00000000 NULL
P        1.97129262       4.29054682       1.65960396       0.00000000 NULL
P        2.71304008      -0.10705788       5.08348716       0.00000000 NULL
10
Lattice="5.689983658126396 -0.0021415780919669942 0.05029214494580666 -2.305674356595658 6.434776812964566 -0.18300445455412953 -1.4036527976226734 -2.2764663049310148 6.9723611564209875" Properties=species:S:1:pos:R:3:initial_magmoms:R:1:castep_labels:S:1 n_minim_iter=4 pbc="T T T"
P        3.42008537       2.11783553       1.16117722       0.00000000 NULL
P       -1.29762868       5.19733282       3.46521009       0.00000000 NULL
P        0.90469267       2.81314991       6.61647889       0.00000000 NULL
P        0.60626213       4.16335295       3.45881176       0.00000000 NULL
P        1.27898877       0.02897293       1.95145053       0.00000000 NULL
P        0.03965292       0.98845701       3.75981811       0.00000000 NULL
P       -2.42090264       4.24099633       5.09661035       0.00000000 NULL
P        4.53220554      -0.81224366       3.93293074       0.00000000 NULL
P        2.05821677       4.30508746       1.62511195       0.00000000 NULL
P        2.83836026      -0.15004251       5.09510195       0.00000000 NULL
10
Lattice="5.872155311417085 0.02955724302577147 0.1280781556850932 -2.341873345657265 6.40634538468367 -0.28191029707019716 -1.3617816938034524 -2.35361683967698 6.862077836478783" Properties=species:S:1:pos:R:3:initial_magmoms:R:1:castep_labels:S:1 n_minim_iter=5 pbc="T T T"
P        3.55277827       2.12336086       1.16805313       0.00000000 NULL
P       -1.24643071       5.13913038       3.33356750       0.00000000 NULL
P        1.04524977       2.74140904       6.49036328       0.00000000 NULL
P        0.70197628       4.10511461       3.36636163       0.00000000 NULL
P        1.34605333       0.02408453       1.93608881       0.00000000 NULL
P        0.10693996       0.95053250       3.68063215       0.00000000 NULL
P       -2.39758726       4.15854151       4.93416578       0.00000000 NULL
P        4.72045087      -0.82527760       3.93919691       0.00000000 NULL
P        2.17900314       4.27874666       1.57403908       0.00000000 NULL
P        2.99782146      -0.18742643       5.05602411       0.00000000 NULL
10
Lattice="6.142504169921352 0.09828772497800901 0.2391587438897593 -2.369909815306087 6.279885178143276 -0.42843749313192664 -1.3136866159138942 -2.4507531356493137 6.643389248255709" Properties=species:S:1:pos:R:3:initial_magmoms:R:1:castep_labels:S:1 n_minim_iter=6 pbc="T T T"
P        3.75651439       2.12031194       1.16359201       0.00000000 NULL
P       -1.14977050       4.98371564       3.10997697       0.00000000 NULL
P        1.26003698       2.60202533       6.24634430       0.00000000 NULL
P        0.85612839       3.97192238       3.20063860       0.00000000 NULL
P        1.44465754       0.01934759       1.89512143       0.00000000 NULL
P        0.20676364       0.87963152       3.53327666       0.00000000 NULL
P       -2.35018839       3.97675964       4.64928754       0.00000000 NULL
P        4.99534257      -0.82141292       3.91267853       0.00000000 NULL
P        2.37549300       4.19582985       1.48376870       0.00000000 NULL
P        3.22926402      -0.23500479       4.95435542       0.00000000 NULL
10
Lattice="6.686215809046135 0.24922309873821122 0.34220780906219145 -2.4112458802415984 6.024519698674436 -0.6398101489106108 -1.3784057442539142 -2.6127282846790174 6.383999349531553" Properties=species:S:1:pos:R:3:initial_magmoms:R:1:castep_labels:S:1 n_minim_iter=7 pbc="T T T"
P        4.14800943       2.12807274       1.11707980       0.00000000 NULL
P       -1.02382549       4.68747440       2.80404003       0.00000000 NULL
P        1.54880273       2.36319390       5.90317765       0.00000000 NULL
P        1.08740664       3.73837054       2.96339660       0.00000000 NULL
P        1.60208034       0.01451392       1.82289693       0.00000000 NULL
P        0.31591899       0.75652453       3.34024109       0.00000000 NULL
P       -2.36585520       3.64132629       4.26960065       0.00000000 NULL
P        5.47238937      -0.78571521       3.84916816       0.00000000 NULL
P        2.74309818       4.05225729       1.33111368       0.00000000 NULL
P        3.57812236      -0.29998669       4.80643715       0.00000000 NULL
10
Lattice="6.850594336474587 0.45882700939045973 0.3138596712399393 -2.229561911725377 5.692150131975217 -0.7483207655536026 -1.5386966788958718 -2.717928904215825 6.205587151060305" Properties=species:S:1:pos:R:3:initial_magmoms:R:1:castep_labels:S:1 n_minim_iter=8 pbc="T T T"
P        4.31440685       2.16099880       1.01396563       0.00000000 NULL
P       -0.85208457       4.36025798       2.60562442       0.00000000 NULL
P        1.65212776       2.16251887       5.61868059       0.00000000 NULL
P        1.22165831       3.51369446       2.77876402       0.00000000 NULL
P        1.63389775       0.02707124       1.73315635       0.00000000 NULL
P        0.32592570       0.64726661       3.20037520       0.00000000 NULL
P       -2.30284006       3.29131507       4.01998707       0.00000000 NULL
P        5.57535801      -0.66330018       3.72071446       0.00000000 NULL
P        2.97787581       3.91117103       1.18735354       0.00000000 NULL
P        3.62043162      -0.30100744       4.63674291       0.00000000 NULL
10
Lattice="7.104045392805128 0.5036873872895077 0.305165033823053 -2.2790263781788083 5.761798310440217 -0.7924921653139939 -1.6328060313186403 -2.8105353598802885 6.287295305862845" Properties=species:S:1:pos:R:3:initial_magmoms:R:1:castep_labels:S:1 n_minim_iter=9 pbc="T T T"
P        4.48313286       2.21050810       0.99963971       0.00000000 NULL
P       -0.86669406       4.38951052       2.60729925       0.00000000 NULL
P        1.70410813       2.16686839       5.64999266       0.00000000 NULL
P        1.26262081       3.53630638       2.78633872       0.00000000 NULL
P        1.69485638       0.02736985       1.73553305       0.00000000 NULL
P        0.31382232       0.63743276       3.23125477       0.00000000 NULL
P       -2.38224140       3.29521129       4.03697855       0.00000000 NULL
P        5.77818747      -0.65957980       3.75951391       0.00000000 NULL
P        3.10166918       3.96341647       1.16670314       0.00000000 NULL
P        3.73209565      -0.31705659       4.68561093       0.00000000 NULL
10
Lattice="7.063380889621299 0.5307104192955467 0.321758696424184 -2.2305650543427173 5.68522828277088 -0.7977814077955429 -1.611155252454706 -2.7945430568760776 6.187433898096574" Properties=species:S:1:pos:R:3:initial_magmoms:R:1:castep_labels:S:1 n_minim_iter=10 pbc="T T T"
P        4.47388641       2.20656078       0.99124008       0.00000000 NULL
P       -0.81937206       4.32926724       2.55658777       0.00000000 NULL
P        1.73450613       2.14366801       5.56017251       0.00000000 NULL
P        1.28458729       3.49322199       2.74247474       0.00000000 NULL
P        1.69189046       0.03216440       1.71064640       0.00000000 NULL
P        0.32635680       0.62660436       3.18079366       0.00000000 NULL
P       -2.32508109       3.24331350       3.95607089       0.00000000 NULL
P        5.76204739      -0.62695451       3.72188472       0.00000000 NULL
P        3.11335810       3.92610769       1.14924528       0.00000000 NULL
P        3.72904235      -0.30368393       4.62593384       0.00000000 NULL
10
Lattice="7.095914428084453 0.5490319070190431 0.33438687402987954 -2.222036790872691 5.673105102960249 -0.8134590909598995 -1.6102107528504979 -2.809345977282629 6.151258024054007" Properties=species:S:1:pos:R:3:initial_magmoms:R:1:castep_labels:S:1 n_minim_iter=11 pbc="T T T"
P        4.50528175       2.21487061       0.98643782       0.00000000 NULL
P       -0.79909605       4.31307657       2.52834282       0.00000000 NULL
P        1.76598997       2.13614633       5.51931045       0.00000000 NULL
P        1.30372445       3.48086084       2.72090451       0.00000000 NULL
P        1.70583276       0.03356952       1.69887792       0.00000000 NULL
P        0.33198339       0.62003908       3.16080934       0.00000000 NULL
P       -2.30997548       3.22585740       3.91413778       0.00000000 NULL
P        5.80214554      -0.61445902       3.71535493       0.00000000 NULL
P        3.14176462       3.92223257       1.13710215       0.00000000 NULL
P        3.75729893      -0.30331674       4.60811925       0.00000000 NULL
10
Lattice="7.184758119656535 0.5926891012331569 0.3776930804803555 -2.2062978797833748 5.652933519269019 -0.858895264656393 -1.5936960252238461 -2.850459658481608 6.041400161676886" Properties=species:S:1:pos:R:3:initial_magmoms:R:1:castep_labels:S:1 n_minim_iter=12 pbc="T T T"
P        4.59215010       2.23701236       0.97664347       0.00000000 NULL
P       -0.74363407       4.27880654       2.44593199       0.00000000 NULL
P        1.85990657       2.12174637       5.40028158       0.00000000 NULL
P        1.35529893       3.45266502       2.65919857       0.00000000 NULL
P        1.74812292       0.03662155       1.66577051       0.00000000 NULL
P        0.34971769       0.60444540       3.10200448       0.00000000 NULL
P       -2.26438548       3.18921288       3.79013008       0.00000000 NULL
P        5.92059809      -0.58465586       3.70034835       0.00000000 NULL
P        3.21477230       3.91523658       1.10588778       0.00000000 NULL
P        3.84337276      -0.30440169       4.55827811       0.00000000 NULL
10
Lattice="7.289867150578148 0.6160476249903359 0.4685856048308488 -2.2211810265620486 5.6691704036627275 -0.9576644317464854 -1.5116487085855854 -2.932945994261425 5.900030261878994" Properties=species:S:1:pos:R:3:initial_magmoms:R:1:castep_labels:S:1 n_minim_iter=13 pbc="T T T"
P        4.70145799       2.24913707       0.97212382       0.00000000 NULL
P       -0.67455541       4.24932703       2.31230547       0.00000000 NULL
P        2.00626647       2.08993208       5.23590477       0.00000000 NULL
P        1.41345093       3.41332175       2.56758123       0.00000000 NULL
P        1.81913108       0.02584664       1.62842312       0.00000000 NULL
P        0.37860043       0.57426498       3.02344464       0.00000000 NULL
P       -2.19126196       3.15630756       3.59762689       0.00000000 NULL
P        6.09944859      -0.58713949       3.71499981       0.00000000 NULL
P        3.28192524       3.90086920       1.06165581       0.00000000 NULL
P        3.98391392      -0.34227125       4.51602561       0.00000000 NULL
10
Lattice="7.291513328053829 0.5911426953706185 0.5369442598711952 -2.2513405546710183 5.597590464012107 -0.9933218029668966 -1.4135423588362288 -2.908652420196973 5.673394105129113" Properties=species:S:1:pos:R:3:initial_magmoms:R:1:castep_labels:S:1 n_minim_iter=14 pbc="T T T"
P        4.73189305       2.20566955       0.95700072       0.00000000 NULL
P       -0.63596140       4.18099591       2.18466580       0.00000000 NULL
P        2.07993341       2.05578746       5.02492277       0.00000000 NULL
P        1.41237794       3.33458880       2.46788570       0.00000000 NULL
P        1.86759090       0.01323205       1.57380003       0.00000000 NULL
P        0.37496217       0.55793874       2.91396152       0.00000000 NULL
P       -2.14121686       3.11634311       3.39525485       0.00000000 NULL
P        6.17711276      -0.58926480       3.66672924       0.00000000 NULL
P        3.26845615       3.81414280       1.02511226       0.00000000 NULL
P        4.04752876      -0.35972107       4.41181090       0.00000000 NULL
10
Lattice="7.383724148675372 0.5869098620869471 0.559089356529654 -2.293677440806434 5.684142377812323 -1.0576293074139789 -1.406924704062944 -2.9960143288431547 5.759465002324356" Properties=species:S:1:pos:R:3:initial_magmoms:R:1:castep_labels:S:1 n_minim_iter=15 pbc="T T T"
P        4.79692068       2.22122029       0.96111560       0.00000000 NULL
P       -0.63974168       4.21827276       2.17539992       0.00000000 NULL
P        2.11933058       2.04249146       5.06787163       0.00000000 NULL
P        1.42704220       3.35219396       2.47441425       0.00000000 NULL
P        1.90272158      -0.00177977       1.59439331       0.00000000 NULL
P        0.37895079       0.54181693       2.94508079       0.00000000 NULL
P       -2.16379019       3.13057508       3.40274723       0.00000000 NULL
P        6.26895767      -0.63332777       3.73460156       0.00000000 NULL
P        3.30183608       3.84750507       1.01443345       0.00000000 NULL
P        4.11257311      -0.40499324       4.48123190       0.00000000 NULL
10
Lattice="7.352655976543141 0.5853160332638013 0.5694658386988658 -2.2829894198103013 5.656848682416886 -1.0560581030909058 -1.3847868172246847 -2.9801517288315638 5.713767765259715" Properties=species:S:1:pos:R:3:initial_magmoms:R:1:castep_labels:S:1 n_minim_iter=16 pbc="T T T"
P        4.78237279       2.21219101       0.96023845       0.00000000 NULL
P       -0.62456571       4.19967931       2.15659525       0.00000000 NULL
P        2.12666070       2.03650386       5.03148495       0.00000000 NULL
P        1.42714222       3.33562610       2.45808143       0.00000000 NULL
P        1.90131117      -0.00200487       1.58543598       0.00000000 NULL
P        0.38268901       0.54098929       2.92381947       0.00000000 NULL
P       -2.14237341       3.11831220       3.37014619       0.00000000 NULL
P        6.25335885      -0.62773854       3.72123904       0.00000000 NULL
P        3.29231906       3.82778922       1.01122190       0.00000000 NULL
P        4.10680473      -0.40063736       4.45806413       0.00000000 NULL
10
Lattice="7.355477497151997 0.5812375302336008 0.580478359397096 -2.28896138049985 5.656189454209877 -1.0660480122537794 -1.3696167208935697 -2.984421074256504 5.700388320089379" Properties=species:S:1:pos:R:3:initial_magmoms:R:1:castep_labels:S:1 n_minim_iter=17 pbc="T T T"
P        4.78817308       2.20799132       0.96087960       0.00000000 NULL
P       -0.61844517       4.19575208       2.14381688       0.00000000 NULL
P        2.13846676       2.03102520       5.01685972       0.00000000 NULL
P        1.42859591       3.32827622       2.44976570       0.00000000 NULL
P        1.90901220      -0.00527659       1.58358024       0.00000000 NULL
P        0.38449881       0.53832466       2.91635424       0.00000000 NULL
P       -2.13717870       3.11493020       3.35137860       0.00000000 NULL
P        6.26550174      -0.63353520       3.72590583       0.00000000 NULL
P        3.29271963       3.82048195       1.00778483       0.00000000 NULL
P        4.11799437      -0.40628745       4.45673958       0.00000000 NULL
10
Lattice="7.4033614321427 0.5233801487784943 0.71722713537826 -2.376859928209755 5.655211044961911 -1.1874405863796982 -1.1817742489738376 -3.0340522352384034 5.544166809404467" Properties=species:S:1:pos:R:3:initial_magmoms:R:1:castep_labels:S:1 n_minim_iter=18 pbc="T T T"
P        4.86662879       2.15323498       0.97257174       0.00000000 NULL
P       -0.54939641       4.15357369       1.99413070       0.00000000 NULL
P        2.28172323       1.96801070       4.84621147       0.00000000 NULL
P        1.44102079       3.23940178       2.35337497       0.00000000 NULL
P        2.01104141      -0.04743373       1.56447213       0.00000000 NULL
P        0.40166298       0.50953047       2.82801191       0.00000000 NULL
P       -2.08734485       3.08173426       3.12724978       0.00000000 NULL
P        6.42813701      -0.71131679       3.79115774       0.00000000 NULL
P        3.29740982       3.72915889       0.96939711       0.00000000 NULL
P        4.26304668      -0.47642172       4.44782296       0.00000000 NULL
10
Lattice="7.522610340760219 0.501484176825629 0.7119422637172086 -2.451058284459597 5.731023753400676 -1.21989753894555 -1.2109968704592051 -3.0882290888973016 5.79972455148875" Properties=species:S:1:pos:R:3:initial_magmoms:R:1:castep_labels:S:1 n_minim_iter=19 pbc="T T T"
P        4.94959856       2.14830701       0.99675742       0.00000000 NULL
P       -0.57638440       4.19585905       2.10012325       0.00000000 NULL
P        2.28003992       1.97119626       5.05226841       0.00000000 NULL
P        1.41778693       3.24759304       2.46124008       0.00000000 NULL
P        2.05659788      -0.07001570       1.62042237       0.00000000 NULL
P        0.36115182       0.51831942       2.95259628       0.00000000 NULL
P       -2.18710319       3.11272686       3.27800749       0.00000000 NULL
P        6.51854479      -0.76486048       3.95123306       0.00000000 NULL
P        3.32992184       3.73648256       0.99567010       0.00000000 NULL
P        4.31493255      -0.49372778       4.63175069       0.00000000 NULL
10
Lattice="7.335008461567472 0.5008440830706239 0.7280264016371434 -2.3758805741053917 5.583866732283621 -1.1777132655341525 -1.141366161172802 -2.9865020730135887 5.615706582103117" Properties=species:S:1:pos:R:3:initial_magmoms:R:1:castep_labels:S:1 n_minim_iter=20 pbc="T T T"
P        4.83812682       2.10782605       0.99478438       0.00000000 NULL
P       -0.52786850       4.10505652       2.04923909       0.00000000 NULL
P        2.27164222       1.94958144       4.92364390       0.00000000 NULL
P        1.41433006       3.18323418       2.40723142       0.00000000 NULL
P        2.01155604      -0.06159285       1.58437738       0.00000000 NULL
P        0.38217527       0.52099790       2.86960972       0.00000000 NULL
P       -2.08965769       3.05423535       3.18034744       0.00000000 NULL
P        6.37940446      -0.72158796       3.86601813       0.00000000 NULL
P        3.26964703       3.65486432       0.99326775       0.00000000 NULL
P        4.24033332      -0.45546690       4.51760921       0.00000000 NULL
10
Lattice="7.378766140882425 0.49369645782612054 0.7415164853990444 -2.402056840681148 5.608408859686185 -1.2002116504127076 -1.1323632080936628 -3.010429655025558 5.6223047978937215" Properties=species:S:1:pos:R:3:initial_magmoms:R:1:castep_labels:S:1 n_minim_iter=21 pbc="T T T"
P        4.86757166       2.10690133       0.99793764       0.00000000 NULL
P       -0.53477343       4.11445876       2.03492358       0.00000000 NULL
P        2.29116238       1.94185291       4.92156013       0.00000000 NULL
P        1.42264023       3.18557302       2.40061627       0.00000000 NULL
P        2.02583007      -0.06882835       1.58811621       0.00000000 NULL
P        0.38801432       0.51689811       2.86769886       0.00000000 NULL
P       -2.10181803       3.05797090       3.16633883       0.00000000 NULL
P        6.42315249      -0.74085361       3.88184564       0.00000000 NULL
P        3.28455338       3.66105040       0.98761820       0.00000000 NULL
P        4.27417301      -0.47122090       4.52783086       0.00000000 NULL
