12
Lattice="5.201810000000003 1.4278008129376118e-16 1.6119416986229074e-15 1.5718807471012046 7.1524008602002045 1.4189469752284704e-15 2.342895900124625 1.2659588464663096 7.165939949032012" Properties=species:S:1:pos:R:3:initial_magmoms:R:1:castep_labels:S:1 n_minim_iter=1 pbc="T T T"
P        6.15469354       6.78873927       5.87286257       0.00000000 NULL
P        2.86592391       1.18309215       6.03898410       0.00000000 NULL
P        6.70809825       6.95780059       2.97814243       0.00000000 NULL
P        4.41509611       1.71697732       1.47272391       0.00000000 NULL
P        5.62157215       6.87576999       1.24742605       0.00000000 NULL
P        3.79226440       4.10609158       0.42071377       0.00000000 NULL
P        3.07495570       4.69572717       3.73015838       0.00000000 NULL
P        5.65353292       4.92604549       1.74685766       0.00000000 NULL
P        4.82724813       1.64360134       5.95479577       0.00000000 NULL
P        8.19218735       5.45922383       6.59582207       0.00000000 NULL
P        6.31146586       2.79508934       6.67815657       0.00000000 NULL
P        1.80197374       1.55565078       0.26149948       0.00000000 NULL
12
Lattice="5.206605070566607 0.002496957867672047 0.0009771927046120317 1.576762994377682 7.166978582319749 0.00228835103864435 2.347009449314812 1.2715269866664094 7.172848481717143" Properties=species:S:1:pos:R:3:initial_magmoms:R:1:castep_labels:S:1 n_minim_iter=2 pbc="T T T"
P        6.16473086       6.80613908       5.88084632       0.00000000 NULL
P        2.87002705       1.18837432       6.04499086       0.00000000 NULL
P        6.71835069       6.97523693       2.98402988       0.00000000 NULL
P        4.42038230       1.72302725       1.47566158       0.00000000 NULL
P        5.63015092       6.89206499       1.25130908       0.00000000 NULL
P        3.79784816       4.11608401       0.42298420       0.00000000 NULL
P        3.08070311       4.70741090       3.73528709       0.00000000 NULL
P        5.66142651       4.93846515       1.75075935       0.00000000 NULL
P        4.83375363       1.65073253       5.96088457       0.00000000 NULL
P        8.20354786       5.47555650       6.60451581       0.00000000 NULL
P        6.32010038       2.80559708       6.68559444       0.00000000 NULL
P        1.80421963       1.55975210       0.26270940       0.00000000 NULL
12
Lattice="5.323898006571909 0.06732906794368193 0.025676526442023777 1.7013495801533944 7.53268261661079 0.06104211200384979 2.4496417762374825 1.4133758318850356 7.341961533442407" Properties=species:S:1:pos:R:3:initial_magmoms:R:1:castep_labels:S:1 n_minim_iter=3 pbc="T T T"
P        6.41596999       7.24540231       6.07883211       0.00000000 NULL
P        2.97197149       1.32291129       6.19216169       0.00000000 NULL
P        6.97477184       7.41535591       3.13134179       0.00000000 NULL
P        4.55136924       1.87698671       1.54907736       0.00000000 NULL
P        5.84502483       7.30270072       1.34938952       0.00000000 NULL
P        3.93763869       4.36826701       0.48059150       0.00000000 NULL
P        3.22522174       5.00218735       3.86261322       0.00000000 NULL
P        5.85819347       5.25195967       1.84844352       0.00000000 NULL
P        4.99504928       1.83249682       6.11030938       0.00000000 NULL
P        8.48625708       5.88945302       6.81979104       0.00000000 NULL
P        6.53456579       3.07306089       6.86866073       0.00000000 NULL
P        1.86019483       1.66339644       0.29326541       0.00000000 NULL
12
Lattice="5.317049166911943 0.13108764548242668 0.03676247303683141 1.786946967530435 7.6609455327629705 0.09886833350403668 2.477345757061447 1.4959263531097111 7.328419427603791" Properties=species:S:1:pos:R:3:initial_magmoms:R:1:castep_labels:S:1 n_minim_iter=4 pbc="T T T"
P        6.50409944       7.44766613       6.10393897       0.00000000 NULL
P        2.99235982       1.40324221       6.18321000       0.00000000 NULL
P        7.06027918       7.61596649       3.16988509       0.00000000 NULL
P        4.57201234       1.96686534       1.56888518       0.00000000 NULL
P        5.92298828       7.48129315       1.38937310       0.00000000 NULL
P        3.98762727       4.48354777       0.50785415       0.00000000 NULL
P        3.28539529       5.13254814       3.88084689       0.00000000 NULL
P        5.91351150       5.39843323       1.87434051       0.00000000 NULL
P        5.02318269       1.94400834       6.10278156       0.00000000 NULL
P        8.55286230       6.10578246       6.84267070       0.00000000 NULL
P        6.57828996       3.23009865       6.86794591       0.00000000 NULL
P        1.87398649       1.71249001       0.30630799       0.00000000 NULL
12
Lattice="5.2757625791417375 0.22884142749884462 0.05173778326851177 1.908880802513369 7.786875190030529 0.15876591178293645 2.5031702800141535 1.612492725803423 7.2670567154275645" Properties=species:S:1:pos:R:3:initial_magmoms:R:1:castep_labels:S:1 n_minim_iter=5 pbc="T T T"
P        6.60055479       7.69391703       6.10964074       0.00000000 NULL
P        3.00456200       1.51615760       6.13476513       0.00000000 NULL
P        7.15062982       7.85597383       3.21180748       0.00000000 NULL
P        4.57691212       2.08734237       1.58940526       0.00000000 NULL
P        6.00906247       7.68713158       1.44457260       0.00000000 NULL
P        4.04242703       4.62052047       0.54772556       0.00000000 NULL
P        3.35798852       5.28792050       3.88834240       0.00000000 NULL
P        5.96315042       5.57495094       1.90265133       0.00000000 NULL
P        5.03486761       2.10027869       6.05776078       0.00000000 NULL
P        8.60402463       6.38576476       6.83967420       0.00000000 NULL
P        6.60459251       3.44569821       6.82808175       0.00000000 NULL
P        1.88525664       1.77215057       0.32424908       0.00000000 NULL
12
Lattice="5.145915638917084 0.5889498473246869 0.12345821855136893 2.3647867018673563 8.188575090272806 0.4290479252316752 2.631127454194842 2.0756053125623994 7.0805961221253675" Properties=species:S:1:pos:R:3:initial_magmoms:R:1:castep_labels:S:1 n_minim_iter=6 pbc="T T T"
P        6.99947448       8.58101631       6.20963032       0.00000000 NULL
P        3.07772641       1.95426779       5.99051122       0.00000000 NULL
P        7.52462836       8.70077007       3.44229020       0.00000000 NULL
P        4.62035551       2.52649985       1.69534747       0.00000000 NULL
P        6.35209402       8.38876108       1.71206184       0.00000000 NULL
P        4.26244511       5.09611868       0.73914892       0.00000000 NULL
P        3.65191688       5.84651290       3.96733217       0.00000000 NULL
P        6.16899227       6.18893403       2.05907658       0.00000000 NULL
P        5.11534642       2.69634197       5.93986351       0.00000000 NULL
P        8.85395628       7.40934437       6.90892876       0.00000000 NULL
P        6.74907907       4.26068957       6.74201843       0.00000000 NULL
P        1.93928857       1.98091324       0.40790999       0.00000000 NULL
12
Lattice="5.280623404170386 0.7829883780220938 0.23859422432306385 2.672292338666619 8.674906840076474 0.6250614625210941 2.8976325300722716 2.400228716888128 7.091679299956886" Properties=species:S:1:pos:R:3:initial_magmoms:R:1:castep_labels:S:1 n_minim_iter=7 pbc="T T T"
P        7.54019092       9.33414100       6.42203897       0.00000000 NULL
P        3.30541284       2.24864532       6.01428866       0.00000000 NULL
P        8.04826373       9.43010922       3.72168619       0.00000000 NULL
P        4.85115799       2.84490157       1.84937992       0.00000000 NULL
P        6.76215090       9.00520750       1.96992251       0.00000000 NULL
P        4.53193227       5.51027820       0.93966938       0.00000000 NULL
P        3.98901831       6.35524445       4.11227204       0.00000000 NULL
P        6.51443947       6.70153719       2.25819699       0.00000000 NULL
P        5.42563368       3.09353868       6.01362463       0.00000000 NULL
P        9.42919646       8.19322028       7.15120857       0.00000000 NULL
P        7.17844080       4.85464153       6.86514144       0.00000000 NULL
P        2.04666912       2.15675494       0.49380592       0.00000000 NULL
12
Lattice="5.16077388076711 0.7780614011645722 0.2576669836219189 2.6293017504096894 8.506059053753791 0.6355035889849013 2.868727579842526 2.3730750324642917 6.897361973426267" Properties=species:S:1:pos:R:3:initial_magmoms:R:1:castep_labels:S:1 n_minim_iter=8 pbc="T T T"
P        7.41368723       9.17318493       6.28003187       0.00000000 NULL
P        3.26069064       2.22264918       5.85450723       0.00000000 NULL
P        7.89851197       9.26007707       3.66286625       0.00000000 NULL
P        4.75650578       2.80250866       1.82520372       0.00000000 NULL
P        6.62958414       8.83407298       1.95895382       0.00000000 NULL
P        4.44393489       5.41232413       0.94776455       0.00000000 NULL
P        3.92855282       6.25065428       4.02127890       0.00000000 NULL
P        6.38245336       6.58132717       2.22991968       0.00000000 NULL
P        5.32940945       3.05187097       5.86457577       0.00000000 NULL
P        9.26121382       8.06302892       6.99789170       0.00000000 NULL
P        7.05459040       4.79112640       6.70220938       0.00000000 NULL
P        2.00588478       2.11762277       0.49326921       0.00000000 NULL
12
Lattice="5.15736417052687 0.7904865571099937 0.2870837421572885 2.6453557850999867 8.574327196445745 0.6501209687641097 2.9107398534751625 2.3958291504248175 6.871412732817341" Properties=species:S:1:pos:R:3:initial_magmoms:R:1:castep_labels:S:1 n_minim_iter=9 pbc="T T T"
P        7.45874241       9.25286678       6.28268224       0.00000000 NULL
P        3.29263415       2.24317538       5.83697665       0.00000000 NULL
P        7.93077176       9.33873439       3.68867710       0.00000000 NULL
P        4.77115438       2.83425142       1.84794417       0.00000000 NULL
P        6.64605035       8.90262755       1.98749431       0.00000000 NULL
P        4.45318065       5.45875848       0.97599322       0.00000000 NULL
P        3.96031934       6.30986548       4.02232707       0.00000000 NULL
P        6.39653086       6.63739378       2.25496477       0.00000000 NULL
P        5.36040695       3.07921972       5.85855193       0.00000000 NULL
P        9.31009741       8.13759737       7.01055958       0.00000000 NULL
P        7.09595806       4.84394218       6.70111790       0.00000000 NULL
P        2.00971846       2.13768151       0.50492101       0.00000000 NULL
12
Lattice="5.154141040125191 0.79418443539699 0.29693472684764677 2.649466341082811 8.590172270973307 0.6559129797675068 2.923758681048036 2.4029220101015767 6.858328440797554" Properties=species:S:1:pos:R:3:initial_magmoms:R:1:castep_labels:S:1 n_minim_iter=10 pbc="T T T"
P        7.47073654       9.27320088       6.28082002       0.00000000 NULL
P        3.30211915       2.24946669       5.82746858       0.00000000 NULL
P        7.93815876       9.35813813       3.69624324       0.00000000 NULL
P        4.77413738       2.84297439       1.85468086       0.00000000 NULL
P        6.64880209       8.91864139       1.99714960       0.00000000 NULL
P        4.45432256       5.46998212       0.98554965       0.00000000 NULL
P        3.96939842       6.32537767       4.02084893       0.00000000 NULL
P        6.39860005       6.65141466       2.26299599       0.00000000 NULL
P        5.36870613       3.08714037       5.85303667       0.00000000 NULL
P        9.32268472       8.15742503       7.01121885       0.00000000 NULL
P        7.10700730       4.85906928       6.69699465       0.00000000 NULL
P        2.01012558       2.14273483       0.50877543       0.00000000 NULL
12
Lattice="5.131133475847148 0.8254077488549632 0.3784894011874176 2.685445453489602 8.724222424750083 0.7060207958514375 3.0333434218884148 2.464553448039612 6.754029542055295" Properties=species:S:1:pos:R:3:initial_magmoms:R:1:castep_labels:S:1 n_minim_iter=11 pbc="T T T"
P        7.57488450       9.44646177       6.27073400       0.00000000 NULL
P        3.38268396       2.30404719       5.75206880       0.00000000 NULL
P        8.00466528       9.52291305       3.76270848       0.00000000 NULL
P        4.80252068       2.91721929       1.91166266       0.00000000 NULL
P        6.67632243       9.05432332       2.07970436       0.00000000 NULL
P        4.46686928       5.56464526       1.06561317       0.00000000 NULL
P        4.04760081       6.45743791       4.01188962       0.00000000 NULL
P        6.42038283       6.77082197       2.33211155       0.00000000 NULL
P        5.44101153       3.15545578       5.81080242       0.00000000 NULL
P        9.43331373       8.32662190       7.02167157       0.00000000 NULL
P        7.20328983       4.98831541       6.66735867       0.00000000 NULL
P        2.01491408       2.18559746       0.54114984       0.00000000 NULL
12
Lattice="5.135606324295499 0.8656088418539132 0.4665660413333659 2.7420728805788963 8.88174328557486 0.7774199414042794 3.1664748245750816 2.553259661121548 6.669168018506384" Properties=species:S:1:pos:R:3:initial_magmoms:R:1:castep_labels:S:1 n_minim_iter=12 pbc="T T T"
P        7.72950738       9.66504108       6.29754989       0.00000000 NULL
P        3.48698026       2.38337966       5.69441368       0.00000000 NULL
P        8.12181180       9.72655726       3.86208278       0.00000000 NULL
P        4.86077877       3.00976158       1.98165775       0.00000000 NULL
P        6.74731219       9.22098993       2.18998972       0.00000000 NULL
P        4.50440374       5.67558650       1.16103863       0.00000000 NULL
P        4.15661476       6.61997454       4.02548538       0.00000000 NULL
P        6.48347783       6.92231601       2.42775861       0.00000000 NULL
P        5.54912630       3.25225521       5.78984324       0.00000000 NULL
P        9.60595294       8.54377019       7.06756467       0.00000000 NULL
P        7.34694112       5.15523544       6.66627111       0.00000000 NULL
P        2.03108242       2.23733700       0.58005874       0.00000000 NULL
12
Lattice="5.119173310043836 0.9118506980476838 0.5633934860090593 2.800688930242097 9.023948203095387 0.8666463973233243 3.3037153426203156 2.6568643929047346 6.539082975217791" Properties=species:S:1:pos:R:3:initial_magmoms:R:1:castep_labels:S:1 n_minim_iter=13 pbc="T T T"
P        7.87557496       9.88652422       6.30481102       0.00000000 NULL
P        3.59039559       2.47725089       5.60040394       0.00000000 NULL
P        8.22479045       9.92395160       3.96497712       0.00000000 NULL
P        4.90955044       3.10946722       2.05329261       0.00000000 NULL
P        6.80541826       9.37386032       2.31491216       0.00000000 NULL
P        4.52811568       5.77603864       1.26858699       0.00000000 NULL
P        4.26831704       6.78846842       4.02621354       0.00000000 NULL
P        6.53302235       7.07703621       2.53427649       0.00000000 NULL
P        5.64726855       3.36110383       5.73772489       0.00000000 NULL
P        9.76528610       8.77205185       7.08975761       0.00000000 NULL
P        7.48125640       5.34076647       6.63484046       0.00000000 NULL
P        2.04061464       2.28758395       0.62237081       0.00000000 NULL
12
Lattice="5.161589104081257 0.9558126368935428 0.6252093574741605 2.873953040088019 9.20967328607277 0.935283275408736 3.4186750620557613 2.7572384191091945 6.511148043829508" Properties=species:S:1:pos:R:3:initial_magmoms:R:1:castep_labels:S:1 n_minim_iter=14 pbc="T T T"
P        8.04941899      10.14060134       6.36231342       0.00000000 NULL
P        3.68781775       2.57105670       5.58619031       0.00000000 NULL
P        8.37871606      10.15878299       4.06410826       0.00000000 NULL
P        4.99218785       3.21209779       2.11529117       0.00000000 NULL
P        6.91744344       9.57180246       2.41546939       0.00000000 NULL
P        4.58864341       5.89700268       1.34665047       0.00000000 NULL
P        4.38545966       6.97307098       4.06088261       0.00000000 NULL
P        6.63761087       7.26007802       2.62665417       0.00000000 NULL
P        5.76342494       3.47353368       5.75061783       0.00000000 NULL
P        9.96745452       9.02117885       7.16091318       0.00000000 NULL
P        7.64099863       5.52670927       6.66791408       0.00000000 NULL
P        2.06751879       2.34490818       0.65371448       0.00000000 NULL
12
Lattice="5.122653869263911 0.9651573521339047 0.6411213716680773 2.8750364328552016 9.1913916008404 0.946259243234493 3.4253330063259426 2.763891017049745 6.432830020574498" Properties=species:S:1:pos:R:3:initial_magmoms:R:1:castep_labels:S:1 n_minim_iter=15 pbc="T T T"
P        8.03196660      10.13632857       6.31292096       0.00000000 NULL
P        3.68558878       2.57948889       5.52276512       0.00000000 NULL
P        8.35084541      10.14775893       4.05307328       0.00000000 NULL
P        4.97130369       3.21975752       2.11495366       0.00000000 NULL
P        6.88965231       9.55347444       2.42315872       0.00000000 NULL
P        4.56447439       5.88555784       1.35871835       0.00000000 NULL
P        4.38623333       6.97581137       4.02801437       0.00000000 NULL
P        6.60915045       7.26165624       2.63106739       0.00000000 NULL
P        5.74550579       3.48027162       5.69535453       0.00000000 NULL
P        9.93928095       9.02629635       7.10904111       0.00000000 NULL
P        7.62117847       5.54164248       6.60933824       0.00000000 NULL
P        2.05578890       2.34288311       0.65658213       0.00000000 NULL
12
Lattice="5.135503882885405 0.9790657921402839 0.6545197066335593 2.8980433145516282 9.25116465877184 0.9655425755942431 3.452962892976287 2.795254649974045 6.432780653185979" Properties=species:S:1:pos:R:3:initial_magmoms:R:1:castep_labels:S:1 n_minim_iter=16 pbc="T T T"
P        8.07930397      10.21733448       6.33297400       0.00000000 NULL
P        3.70943067       2.60986126       5.52451567       0.00000000 NULL
P        8.39510123      10.22203023       4.08050017       0.00000000 NULL
P        4.99475408       3.25209352       2.13176917       0.00000000 NULL
P        6.92281075       9.61648640       2.45024045       0.00000000 NULL
P        4.58181268       5.92293262       1.37882462       0.00000000 NULL
P        4.41878589       7.03472315       4.04055230       0.00000000 NULL
P        6.64051297       7.32148538       2.65700999       0.00000000 NULL
P        5.77507005       3.51605177       5.70341634       0.00000000 NULL
P        9.99423438       9.10542048       7.13214274       0.00000000 NULL
P        7.66335433       5.60054469       6.62272564       0.00000000 NULL
P        2.06355398       2.36082400       0.66441601       0.00000000 NULL
12
Lattice="5.130596057062511 0.989945873275101 0.6654949121553212 2.911520197549384 9.281435571899854 0.9793661811387429 3.468519569144985 2.815458013077414 6.409512243642683" Properties=species:S:1:pos:R:3:initial_magmoms:R:1:castep_labels:S:1 n_minim_iter=17 pbc="T T T"
P        8.09887412      10.26385349       6.32844675       0.00000000 NULL
P        3.72046540       2.63056927       5.50638853       0.00000000 NULL
P        8.41069658      10.26215423       4.09112598       0.00000000 NULL
P        5.00111836       3.27347301       2.14048793       0.00000000 NULL
P        6.93235114       9.64778688       2.46669482       0.00000000 NULL
P        4.58342866       5.94094383       1.39290765       0.00000000 NULL
P        4.43669475       7.07089601       4.03716102       0.00000000 NULL
P        6.64922294       7.35805108       2.67234186       0.00000000 NULL
P        5.78447960       3.53900650       5.69091893       0.00000000 NULL
P       10.01467675       9.15360129       7.12819391       0.00000000 NULL
P        7.67920872       5.63996543       6.61171818       0.00000000 NULL
P        2.06403674       2.37067340       0.66917743       0.00000000 NULL
12
Lattice="5.113476417923056 1.0544269394169483 0.7219947729597777 2.9950073687030647 9.481764689372275 1.0608080168892835 3.5543349782840794 2.940999897813132 6.297850020142895" Properties=species:S:1:pos:R:3:initial_magmoms:R:1:castep_labels:S:1 n_minim_iter=18 pbc="T T T"
P        8.21919964      10.56056069       6.31826253       0.00000000 NULL
P        3.78294298       2.76034345       5.41937535       0.00000000 NULL
P        8.51352481      10.51906060       4.15698019       0.00000000 NULL
P        5.04626485       3.40615573       2.19222915       0.00000000 NULL
P        6.99855093       9.85138365       2.56223080       0.00000000 NULL
P        4.59966808       6.05719919       1.47209161       0.00000000 NULL
P        4.54438858       7.30163963       4.02861818       0.00000000 NULL
P        6.71251217       7.59166674       2.76354992       0.00000000 NULL
P        5.84238040       3.68183287       5.63404088       0.00000000 NULL
P       10.14344645       9.45732676       7.12071150       0.00000000 NULL
P        7.77715825       5.88539606       6.56423470       0.00000000 NULL
P        2.07041783       2.43337383       0.69586782       0.00000000 NULL
12
Lattice="4.987836627816152 1.0551499575074648 0.7140574735149533 2.958035727692287 9.485030081888073 1.0812719094279366 3.4869884490634395 2.964770501201013 6.1624121959334826" Properties=species:S:1:pos:R:3:initial_magmoms:R:1:castep_labels:S:1 n_minim_iter=19 pbc="T T T"
P        8.05807741      10.58104794       6.20688274       0.00000000 NULL
P        3.70366999       2.81192342       5.29934373       0.00000000 NULL
P        8.35271824      10.48549055       4.09587696       0.00000000 NULL
P        4.94922243       3.42490475       2.18375726       0.00000000 NULL
P        6.84299776       9.79949638       2.55746941       0.00000000 NULL
P        4.47342975       6.00990999       1.48214138       0.00000000 NULL
P        4.48751472       7.36094149       3.95099995       0.00000000 NULL
P        6.58456406       7.63814624       2.77173134       0.00000000 NULL
P        5.71477590       3.70073119       5.52414212       0.00000000 NULL
P        9.94814187       9.48655294       6.98964969       0.00000000 NULL
P        7.62536036       5.94777147       6.42704210       0.00000000 NULL
P        2.01598945       2.42547134       0.68866583       0.00000000 NULL
12
Lattice="5.103098332635056 1.0942948127350416 0.7266634036215616 3.0466889754819992 9.72251415169444 1.1188057997503664 3.5657947279502533 3.0561303025025315 6.270608788473913" Properties=species:S:1:pos:R:3:initial_magmoms:R:1:castep_labels:S:1 n_minim_iter=20 pbc="T T T"
P        8.25841180      10.86622002       6.32984039       0.00000000 NULL
P        3.78554706       2.90213171       5.39026172       0.00000000 NULL
P        8.56515076      10.75977936       4.18189547       0.00000000 NULL
P        5.06803932       3.52595325       2.23055168       0.00000000 NULL
P        7.01592812      10.05204663       2.62063373       0.00000000 NULL
P        4.58222363       6.16045206       1.52016370       0.00000000 NULL
P        4.60452940       7.55959364       4.02762834       0.00000000 NULL
P        6.75010397       7.84398929       2.83734863       0.00000000 NULL
P        5.84835060       3.81438932       5.62274131       0.00000000 NULL
P       10.19118408       9.75367408       7.12243434       0.00000000 NULL
P        7.80626446       6.12802357       6.54167609       0.00000000 NULL
P        2.06804351       2.49260465       0.70549920       0.00000000 NULL
12
Lattice="5.043348417890088 1.0820753924674684 0.7205728358185949 3.0118322750908866 9.618544487372327 1.0994420864077625 3.527519251412896 3.015321395842487 6.19836135443514" Properties=species:S:1:pos:R:3:initial_magmoms:R:1:castep_labels:S:1 n_minim_iter=21 pbc="T T T"
P        8.16480713      10.74246571       6.25283702       0.00000000 NULL
P        3.74397445       2.86666374       5.32832818       0.00000000 NULL
P        8.46751585      10.63704603       4.12881973       0.00000000 NULL
P        5.00958628       3.48548133       2.20572641       0.00000000 NULL
P        6.93436263       9.94041530       2.58681649       0.00000000 NULL
P        4.52886530       6.09279563       1.50124403       0.00000000 NULL
P        4.55470970       7.47792522       3.97638741       0.00000000 NULL
P        6.67237969       7.75874261       2.80390651       0.00000000 NULL
P        5.78317993       3.76777875       5.55969968       0.00000000 NULL
P       10.07466640       9.64144703       7.03811851       0.00000000 NULL
P        7.71875876       6.05640956       6.46556957       0.00000000 NULL
P        2.04370851       2.46393134       0.69588726       0.00000000 NULL
12
Lattice="5.038553880001802 1.083402885041535 0.720581530677611 3.012208743518383 9.622643089574233 1.1004370057299966 3.525694839264803 3.0175679112172045 6.190570234195816" Properties=species:S:1:pos:R:3:initial_magmoms:R:1:castep_labels:S:1 n_minim_iter=22 pbc="T T T"
P        8.16051194      10.74776176       6.24717933       0.00000000 NULL
P        3.74107583       2.87102030       5.32118775       0.00000000 NULL
P        8.46376635      10.63916960       4.12531787       0.00000000 NULL
P        5.00595001       3.48818294       2.20554664       0.00000000 NULL
P        6.92977616       9.94309954       2.58700296       0.00000000 NULL
P        4.52498388       6.09370902       1.50208427       0.00000000 NULL
P        4.55450949       7.48412033       3.97122988       0.00000000 NULL
P        6.66869746       7.76366360       2.80470751       0.00000000 NULL
P        5.77968979       3.77112676       5.55389094       0.00000000 NULL
P       10.06850077       9.64751417       7.03101349       0.00000000 NULL
P        7.71408668       6.06283133       6.45754255       0.00000000 NULL
P        2.04270044       2.46520950       0.69566709       0.00000000 NULL
12
Lattice="5.033869684852307 1.0877236855415064 0.7210530130282012 3.016734303091226 9.640927643656951 1.104248694851225 3.525286133106168 3.0261953891590685 6.1798091466318805" Properties=species:S:1:pos:R:3:initial_magmoms:R:1:castep_labels:S:1 n_minim_iter=23 pbc="T T T"
P        8.16027479      10.77062929       6.24146379       0.00000000 NULL
P        3.73853752       2.88425666       5.31081833       0.00000000 NULL
P        8.46546600      10.65446511       4.12195930       0.00000000 NULL
P        5.00365614       3.49802702       2.20748290       0.00000000 NULL
P        6.92768916       9.95889138       2.59035874       0.00000000 NULL
P        4.52161961       6.10159117       1.50567110       0.00000000 NULL
P        4.55924387       7.50534880       3.96399095       0.00000000 NULL
P        6.66841927       7.78236905       2.80963865       0.00000000 NULL
P        5.77842381       3.78293409       5.54670992       0.00000000 NULL
P       10.06636220       9.67126354       7.02261728       0.00000000 NULL
P        7.71239442       6.08397782       6.44630145       0.00000000 NULL
P        2.04300790       2.47068535       0.69598739       0.00000000 NULL
12
Lattice="4.984492761164789 1.127227369625633 0.7216277997851683 3.0561305033232333 9.788250755829417 1.1324095105701704 3.5134525470370814 3.0959909589787764 6.063513664412582" Properties=species:S:1:pos:R:3:initial_magmoms:R:1:castep_labels:S:1 n_minim_iter=24 pbc="T T T"
P        8.14453710      10.95556653       6.16868873       0.00000000 NULL
P        3.70521576       3.00751154       5.19814748       0.00000000 NULL
P        8.47394285      10.75797166       4.07059572       0.00000000 NULL
P        4.97445941       3.58347735       2.22125712       0.00000000 NULL
P        6.89590373      10.07703048       2.61112565       0.00000000 NULL
P        4.48173195       6.15453419       1.53467680       0.00000000 NULL
P        4.60004344       7.68832070       3.87635146       0.00000000 NULL
P        6.65874388       7.93875656       2.85007488       0.00000000 NULL
P        5.75920460       3.88386985       5.46568170       0.00000000 NULL
P       10.03047743       9.86895238       6.92034960       0.00000000 NULL
P        7.68582083       6.27288083       6.31837015       0.00000000 NULL
P        2.04561167       2.51696014       0.69573212       0.00000000 NULL
