18
Lattice="5.466440000000003 2.7673924380905003e-17 0.0 -2.7332200000000015 4.734075908263408 0.0 0.0 0.0 15.641699999999998" Properties=species:S:1:pos:R:3:initial_magmoms:R:1:castep_labels:S:1 n_minim_iter=1 pbc="T T T"
P       -2.26263249       4.32024335      15.16880292       0.00000000 NULL
P        0.12309548       0.61445749       4.74100292       0.00000000 NULL
P        2.13953619       4.53345145       9.95490292       0.00000000 NULL
P        3.18656909       2.32212720       1.86506625       0.00000000 NULL
P        1.86213404       1.59858666       7.07896625       0.00000000 NULL
P        3.15095606       0.81336252      12.29286625       0.00000000 NULL
P        1.62553832       2.50159649      10.51634506       0.00000000 NULL
P        2.48722446       0.15695971       0.08854506       0.00000000 NULL
P        4.08689640       2.07552018       5.30244506       0.00000000 NULL
P        0.41007948       0.22981998       6.74576311       0.00000000 NULL
P        5.06237005       0.24022973      11.95966311       0.00000000 NULL
P        2.72720966       4.26402667       1.53186311       0.00000000 NULL
P        2.78788686       1.32068646       9.29119483       0.00000000 NULL
P        2.92874827       1.75403809      14.50509483       0.00000000 NULL
P        2.48302405       1.65935183       4.07729483       0.00000000 NULL
P        3.11922938       2.77278708      11.85542630       0.00000000 NULL
P        1.50552099       1.31493882       1.42762630       0.00000000 NULL
P        3.57490881       0.64635048       6.64152630       0.00000000 NULL
18
Lattice="5.481638487470002 1.0013864444297253e-15 0.0 -2.740819243735002 4.747238184511527 0.0 0.0 0.0 15.68323770368003" Properties=species:S:1:pos:R:3:initial_magmoms:R:1:castep_labels:S:1 n_minim_iter=2 pbc="T T T"
P       -2.26898312       4.33220376      15.20882837       0.00000000 NULL
P        0.12351202       0.61613976       4.75333656       0.00000000 NULL
P        2.14547028       4.54613332       9.98108247       0.00000000 NULL
P        3.19578264       2.32849398       1.87029531       0.00000000 NULL
P        1.86721195       1.60338244       7.09804121       0.00000000 NULL
P        3.15946231       0.81536224      12.32578711       0.00000000 NULL
P        1.62970570       2.50855360      10.54416394       0.00000000 NULL
P        2.49431422       0.15709021       0.08867214       0.00000000 NULL
P        4.09843699       2.08159485       5.31641804       0.00000000 NULL
P        0.41119630       0.23015497       6.76385286       0.00000000 NULL
P        5.07672001       0.24102943      11.99159876       0.00000000 NULL
P        2.73454060       4.27605426       1.53610695       0.00000000 NULL
P        2.79570859       1.32423245       9.31567756       0.00000000 NULL
P        2.93696497       1.75903891      14.54342346       0.00000000 NULL
P        2.48978334       1.66396730       4.08793166       0.00000000 NULL
P        3.12812451       2.78072490      11.88701240       0.00000000 NULL
P        1.50939756       1.31867332       1.43152060       0.00000000 NULL
P        3.58493484       0.64784044       6.65926650       0.00000000 NULL
18
Lattice="5.738119191319389 7.664486578192516e-17 0.0 -2.8690595956596945 4.96935698962561 0.0 0.0 0.0 16.37682844896921" Properties=species:S:1:pos:R:3:initial_magmoms:R:1:castep_labels:S:1 n_minim_iter=3 pbc="T T T"
P       -2.37616308       4.53399257      15.87699729       0.00000000 NULL
P        0.13058810       0.64454360       4.95911166       0.00000000 NULL
P        2.24557412       4.76017830      10.41805448       0.00000000 NULL
P        3.35153180       2.43588687       1.95796127       0.00000000 NULL
P        1.95281309       1.68456874       7.41690408       0.00000000 NULL
P        3.30283304       0.84890188      12.87584690       0.00000000 NULL
P        1.69984669       2.62599162      11.00853470       0.00000000 NULL
P        2.61402011       0.15911510       0.09064907       0.00000000 NULL
P        4.29331113       2.18425077       5.54959189       0.00000000 NULL
P        0.43009873       0.23557638       7.06602269       0.00000000 NULL
P        5.31905441       0.25468874      12.52496551       0.00000000 NULL
P        2.85802478       4.47909237       1.60707987       0.00000000 NULL
P        2.92768826       1.38400655       9.72429038       0.00000000 NULL
P        3.07568994       1.84344963      15.18323319       0.00000000 NULL
P        2.60379972       1.74190131       4.26534756       0.00000000 NULL
P        3.27837027       2.91479588      12.41448279       0.00000000 NULL
P        1.57464649       1.38175449       1.49659716       0.00000000 NULL
P        3.75416117       0.67280712       6.95553998       0.00000000 NULL
18
Lattice="5.7869126374397215 8.118099610676567e-16 0.0 -2.8934563187198616 5.011613353504005 0.0 0.0 0.0 16.391868099035417" Properties=species:S:1:pos:R:3:initial_magmoms:R:1:castep_labels:S:1 n_minim_iter=4 pbc="T T T"
P       -2.39611205       4.57181340      15.89020167       0.00000000 NULL
P        0.13220551       0.65061325       4.96228960       0.00000000 NULL
P        2.26390568       4.80080056      10.42624563       0.00000000 NULL
P        3.38330937       2.45583028       1.96423719       0.00000000 NULL
P        1.96844626       1.70211723       7.42819322       0.00000000 NULL
P        3.32861246       0.85366635      12.89214926       0.00000000 NULL
P        1.71227460       2.64898700      11.01684143       0.00000000 NULL
P        2.63668501       0.15838030       0.08892937       0.00000000 NULL
P        4.33140848       2.20424655       5.55288540       0.00000000 NULL
P        0.43451729       0.23467800       7.07326215       0.00000000 NULL
P        5.36641659       0.25896451      12.53721818       0.00000000 NULL
P        2.87943421       4.51797134       1.60930612       0.00000000 NULL
P        2.95225915       1.39501274       9.73079003       0.00000000 NULL
P        3.10266630       1.85922555      15.19474606       0.00000000 NULL
P        2.62544264       1.75737556       4.26683400       0.00000000 NULL
P        3.30781806       2.94100956      12.42626526       0.00000000 NULL
P        1.58601432       1.39415019       1.49835319       0.00000000 NULL
P        3.78653571       0.67645410       6.96230923       0.00000000 NULL
18
Lattice="5.805620600470948 -2.491697338235321e-16 0.0 -2.902810300235474 5.027814924742108 0.0 0.0 0.0 16.311653662505563" Properties=species:S:1:pos:R:3:initial_magmoms:R:1:castep_labels:S:1 n_minim_iter=5 pbc="T T T"
P       -2.40316533       4.58573978      15.81104686       0.00000000 NULL
P        0.13302553       0.65374332       4.93661108       0.00000000 NULL
P        2.27013893       4.81614726      10.37382897       0.00000000 NULL
P        3.39766222       2.46292193       1.96005997       0.00000000 NULL
P        1.97383624       1.71100133       7.39727785       0.00000000 NULL
P        3.33693157       0.85389217      12.83449574       0.00000000 NULL
P        1.71594931       2.65858862      10.96075579       0.00000000 NULL
P        2.64524037       0.15676188       0.08632001       0.00000000 NULL
P        4.34724035       2.21246492       5.52353790       0.00000000 NULL
P        0.43711196       0.23225524       7.03943766       0.00000000 NULL
P        5.38592539       0.26242294      12.47665555       0.00000000 NULL
P        2.88539268       4.53313725       1.60221977       0.00000000 NULL
P        2.96109868       1.39882132       9.68021942       0.00000000 NULL
P        3.11365617       1.86497652      15.11743731       0.00000000 NULL
P        2.63367518       1.76401759       4.24300153       0.00000000 NULL
P        3.32008556       2.95179330      12.36575492       0.00000000 NULL
P        1.58924954       1.39938229       1.49131915       0.00000000 NULL
P        3.79909493       0.67663983       6.92853704       0.00000000 NULL
18
Lattice="5.8194999975132315 -1.7853714243051492e-16 0.0 -2.9097499987566158 5.039834835169937 0.0 0.0 0.0 16.137260611170074" Properties=species:S:1:pos:R:3:initial_magmoms:R:1:castep_labels:S:1 n_minim_iter=6 pbc="T T T"
P       -2.40696840       4.59489937      15.63851135       0.00000000 NULL
P        0.13393433       0.65788988       4.88033761       0.00000000 NULL
P        2.27303320       4.82688093      10.25942448       0.00000000 NULL
P        3.41289671       2.46696862       1.95110508       0.00000000 NULL
P        1.97659385       1.72217145       7.33019195       0.00000000 NULL
P        3.33975856       0.85069527      12.70927882       0.00000000 NULL
P        1.71602947       2.66753427      10.83879754       0.00000000 NULL
P        2.65133252       0.15235848       0.08062380       0.00000000 NULL
P        4.36188713       2.21994258       5.45971067       0.00000000 NULL
P        0.44117078       0.22579978       6.96647729       0.00000000 NULL
P        5.40336597       0.26916571      12.34556416       0.00000000 NULL
P        2.88471237       4.54486984       1.58739042       0.00000000 NULL
P        2.96630268       1.40070937       9.57002359       0.00000000 NULL
P        3.12329847       1.86853929      14.94911046       0.00000000 NULL
P        2.63964797       1.77058668       4.19093672       0.00000000 NULL
P        3.33143337       2.96127842      12.23421698       0.00000000 NULL
P        1.58924068       1.40446722       1.47604324       0.00000000 NULL
P        3.80857507       0.67408969       6.85513011       0.00000000 NULL
18
Lattice="5.812310947273939 -4.665285446667535e-16 0.0 -2.9061554736369692 5.0336089350336275 0.0 0.0 0.0 16.060847120658373" Properties=species:S:1:pos:R:3:initial_magmoms:R:1:castep_labels:S:1 n_minim_iter=7 pbc="T T T"
P       -2.40051812       4.58675941      15.55748803       0.00000000 NULL
P        0.13416407       0.66132006       4.85025662       0.00000000 NULL
P        2.26635318       4.81913890      10.20387233       0.00000000 NULL
P        3.41854396       2.46122917       1.95969779       0.00000000 NULL
P        1.97155170       1.72993183       7.31331350       0.00000000 NULL
P        3.32836990       0.84244844      12.66692921       0.00000000 NULL
P        1.70736747       2.66861435      10.78055530       0.00000000 NULL
P        2.64753910       0.14431693       0.07332389       0.00000000 NULL
P        4.36355898       2.22067816       5.42693960       0.00000000 NULL
P        0.44586781       0.21474662       6.93888315       0.00000000 NULL
P        5.40340072       0.27876004      12.29249886       0.00000000 NULL
P        2.86919701       4.54010277       1.58526744       0.00000000 NULL
P        2.95936600       1.39675907       9.51416274       0.00000000 NULL
P        3.12299882       1.86450710      14.86777844       0.00000000 NULL
P        2.63610074       1.77234327       4.16054703       0.00000000 NULL
P        3.33251151       2.96058811      12.17749431       0.00000000 NULL
P        1.58211039       1.40574607       1.47026289       0.00000000 NULL
P        3.80384365       0.66727526       6.82387860       0.00000000 NULL
18
Lattice="5.71786721999592 3.462835174031666e-16 0.0 -2.85893360999796 4.951818267982773 0.0 0.0 0.0 15.884226669741114" Properties=species:S:1:pos:R:3:initial_magmoms:R:1:castep_labels:S:1 n_minim_iter=8 pbc="T T T"
P       -2.35481965       4.50669269      15.37144735       0.00000000 NULL
P        0.13343280       0.65913878       4.78196290       0.00000000 NULL
P        2.22138600       4.73780556      10.07670513       0.00000000 NULL
P        3.38309075       2.41545279       1.97697254       0.00000000 NULL
P        1.93447808       1.72211664       7.27171476       0.00000000 NULL
P        3.25923114       0.81424934      12.56645698       0.00000000 NULL
P        1.66584489       2.63497484      10.64811314       0.00000000 NULL
P        2.60298934       0.12517707       0.05862869       0.00000000 NULL
P        4.30796574       2.19166685       5.35337092       0.00000000 NULL
P        0.45013910       0.18799562       6.87422417       0.00000000 NULL
P        5.32998840       0.29583458      12.16896639       0.00000000 NULL
P        2.79667247       4.46798856       1.57948195       0.00000000 NULL
P        2.90340547       1.36913164       9.38596267       0.00000000 NULL
P        3.08046141       1.82985757      14.68070489       0.00000000 NULL
P        2.59293309       1.75282955       4.09122045       0.00000000 NULL
P        3.28818290       2.91779071      12.04552359       0.00000000 NULL
P        1.54689461       1.38875507       1.45603914       0.00000000 NULL
P        3.74172246       0.64527299       6.75078136       0.00000000 NULL
18
Lattice="5.784662196976968 -6.70558484791949e-16 0.0 -2.892331098488483 5.009664414893557 0.0 0.0 0.0 16.16222830130622" Properties=species:S:1:pos:R:3:initial_magmoms:R:1:castep_labels:S:1 n_minim_iter=9 pbc="T T T"
P       -2.38284245       4.55764304      15.63642903       0.00000000 NULL
P        0.13671737       0.66724130       4.86161016       0.00000000 NULL
P        2.24612420       4.79444498      10.24901960       0.00000000 NULL
P        3.42846409       2.44229356       2.02013424       0.00000000 NULL
P        1.95534160       1.74799072       7.40754367       0.00000000 NULL
P        3.29318674       0.81938064      12.79495310       0.00000000 NULL
P        1.68027759       2.66721180      10.83202616       0.00000000 NULL
P        2.63464994       0.12155768       0.05720729       0.00000000 NULL
P        4.36206490       2.22089544       5.44461672       0.00000000 NULL
P        0.45749124       0.18368720       6.99729117       0.00000000 NULL
P        5.39683850       0.30435594      12.38470060       0.00000000 NULL
P        2.82266268       4.52162177       1.60988173       0.00000000 NULL
P        2.93627927       1.38307981       9.54485708       0.00000000 NULL
P        3.11874002       1.85135304      14.93226652       0.00000000 NULL
P        2.62197314       1.77523207       4.15744765       0.00000000 NULL
P        3.32911804       2.95374005      12.25689310       0.00000000 NULL
P        1.56208897       1.40623127       1.48207423       0.00000000 NULL
P        3.78578542       0.64969360       6.86948366       0.00000000 NULL
18
Lattice="5.733102701345678 2.5359157061055054e-16 0.0 -2.866551350672839 4.965012581870546 0.0 0.0 0.0 15.988328469079814" Properties=species:S:1:pos:R:3:initial_magmoms:R:1:castep_labels:S:1 n_minim_iter=10 pbc="T T T"
P       -2.36138675       4.51636685      15.46791900       0.00000000 NULL
P        0.13595601       0.66180874       4.80903335       0.00000000 NULL
P        2.22542988       4.75185007      10.13847618       0.00000000 NULL
P        3.39923478       2.42009381       2.00179207       0.00000000 NULL
P        1.93762231       1.73377726       7.33123489       0.00000000 NULL
P        3.26279611       0.81114200      12.66067771       0.00000000 NULL
P        1.66485936       2.64424048      10.71451708       0.00000000 NULL
P        2.61069330       0.11969075       0.05563144       0.00000000 NULL
P        4.32410053       2.20108184       5.38507426       0.00000000 NULL
P        0.45426630       0.18040550       6.92204562       0.00000000 NULL
P        5.34973352       0.30320390      12.25148844       0.00000000 NULL
P        2.79565338       4.48140368       1.59260279       0.00000000 NULL
P        2.90913838       1.37044220       9.44020453       0.00000000 NULL
P        3.09169546       1.83416714      14.76964735       0.00000000 NULL
P        2.59881935       1.76040374       4.11076170       0.00000000 NULL
P        3.29951627       2.92754739      12.12475793       0.00000000 NULL
P        1.54801387       1.39369171       1.46587229       0.00000000 NULL
P        3.75212305       0.64377398       6.79531511       0.00000000 NULL
18
Lattice="5.726814894903522 1.283877918042861e-15 0.0 -2.863407447451762 4.959567181757559 0.0 0.0 0.0 15.98782158493299" Properties=species:S:1:pos:R:3:initial_magmoms:R:1:castep_labels:S:1 n_minim_iter=11 pbc="T T T"
P       -2.35894714       4.51071374      15.46639780       0.00000000 NULL
P        0.13648804       0.66130266       4.80785008       0.00000000 NULL
P        2.22245824       4.74711846      10.13712394       0.00000000 NULL
P        3.39745411       2.41696473       2.00509930       0.00000000 NULL
P        1.93493470       1.73379970       7.33437316       0.00000000 NULL
P        3.25783268       0.80880325      12.66364702       0.00000000 NULL
P        1.66163974       2.64196480      10.71324500       0.00000000 NULL
P        2.60798610       0.11804032       0.05469728       0.00000000 NULL
P        4.32059564       2.19956255       5.38397114       0.00000000 NULL
P        0.45460165       0.17796797       6.92244216       0.00000000 NULL
P        5.34538900       0.30471309      12.25171602       0.00000000 NULL
P        2.79023084       4.47688662       1.59316830       0.00000000 NULL
P        2.90530541       1.36830133       9.43788662       0.00000000 NULL
P        3.08917819       1.83191812      14.76716048       0.00000000 NULL
P        2.59573788       1.75934823       4.10861276       0.00000000 NULL
P        3.29647197       2.92481844      12.12436867       0.00000000 NULL
P        1.54561155       1.39241975       1.46582095       0.00000000 NULL
P        3.74813796       0.64232949       6.79509481       0.00000000 NULL
18
Lattice="5.615874649325336 1.7534465459460742e-16 0.0 -2.807937324662668 4.863490110784767 0.0 0.0 0.0 16.028533834438452" Properties=species:S:1:pos:R:3:initial_magmoms:R:1:castep_labels:S:1 n_minim_iter=12 pbc="T T T"
P       -2.31706010       4.41001761      15.48651319       0.00000000 NULL
P        0.14727981       0.65184888       4.80082396       0.00000000 NULL
P        2.16977945       4.66511421      10.14366857       0.00000000 NULL
P        3.36815376       2.36147517       2.07388012       0.00000000 NULL
P        1.88670000       1.73616962       7.41672473       0.00000000 NULL
P        3.16895737       0.76584580      12.75956935       0.00000000 NULL
P        1.60328298       2.60197974      10.72312050       0.00000000 NULL
P        2.56085233       0.08749441       0.03743128       0.00000000 NULL
P        4.25967583       2.17401645       5.38027589       0.00000000 NULL
P        0.46105055       0.13262475       6.95125596       0.00000000 NULL
P        5.27049269       0.33296960      12.29410057       0.00000000 NULL
P        2.69226789       4.39789625       1.60841135       0.00000000 NULL
P        2.83730335       1.32968860       9.42397302       0.00000000 NULL
P        3.04567858       1.79233297      14.76681763       0.00000000 NULL
P        2.54082920       1.74146903       4.08112841       0.00000000 NULL
P        3.24291346       2.87712042      12.15500289       0.00000000 NULL
P        1.50275827       1.36988572       1.46931367       0.00000000 NULL
P        3.67813940       0.61648446       6.81215828       0.00000000 NULL
18
Lattice="5.438080905489878 -3.865327182366666e-16 0.0 -2.7190404527449386 4.7095162119893175 0.0 0.0 0.0 16.856307155270372" Properties=species:S:1:pos:R:3:initial_magmoms:R:1:castep_labels:S:1 n_minim_iter=13 pbc="T T T"
P       -2.27172778       4.24880335      16.27565779       0.00000000 NULL
P        0.17533243       0.61774104       5.03811968       0.00000000 NULL
P        2.09639453       4.55248850      10.65688874       0.00000000 NULL
P        3.30643460       2.28380680       2.23484365       0.00000000 NULL
P        1.80702863       1.72155342       7.85361270       0.00000000 NULL
P        3.04365732       0.70415645      13.47238175       0.00000000 NULL
P        1.52319008       2.51976837      11.26635364       0.00000000 NULL
P        2.49430217       0.05923759       0.02881554       0.00000000 NULL
P        4.13962829       2.13051072       5.64758459       0.00000000 NULL
P        0.45742431       0.08096323       7.30705302       0.00000000 NULL
P        5.13925226       0.35565993      12.92582207       0.00000000 NULL
P        2.56044397       4.27289352       1.68828397       0.00000000 NULL
P        2.74144091       1.26862546       9.88721079       0.00000000 NULL
P        2.96869831       1.73984522      15.50597984       0.00000000 NULL
P        2.44698133       1.70104601       4.26844174       0.00000000 NULL
P        3.13986226       2.79419903      12.77670068       0.00000000 NULL
P        1.44830216       1.32210144       1.53916258       0.00000000 NULL
P        3.56895612       0.59321622       7.15793163       0.00000000 NULL
18
Lattice="5.373033984608399 1.2467552403496658e-15 0.0 -2.6865169923042003 4.6531839260679995 0.0 0.0 0.0 16.35968661978837" Properties=species:S:1:pos:R:3:initial_magmoms:R:1:castep_labels:S:1 n_minim_iter=14 pbc="T T T"
P       -2.24729469       4.19584227      15.79825140       0.00000000 NULL
P        0.17645807       0.60904897       4.89179365       0.00000000 NULL
P        2.07083581       4.50147708      10.34502252       0.00000000 NULL
P        3.26932523       2.25608143       2.17264047       0.00000000 NULL
P        1.78454727       1.70327845       7.62586934       0.00000000 NULL
P        3.00567768       0.69382451      13.07909821       0.00000000 NULL
P        1.50472552       2.48865052      10.93369603       0.00000000 NULL
P        2.46543638       0.05880573       0.02723829       0.00000000 NULL
P        4.08938827       2.10572814       5.48046716       0.00000000 NULL
P        0.45219474       0.07747856       7.08879254       0.00000000 NULL
P        5.07983795       0.35287332      12.54202141       0.00000000 NULL
P        2.52751748       4.22283251       1.63556367       0.00000000 NULL
P        2.70811865       1.25244339       9.59550373       0.00000000 NULL
P        2.93432660       1.71907831      15.04873261       0.00000000 NULL
P        2.41710492       1.68166269       4.14227486       0.00000000 NULL
P        3.10081882       2.76102515      12.39864509       0.00000000 NULL
P        1.43150638       1.30487576       1.49218735       0.00000000 NULL
P        3.52722497       0.58728347       6.94541622       0.00000000 NULL
18
Lattice="5.418004527469206 -3.6097248485148394e-16 0.0 -2.7090022637346025 4.692129558607436 0.0 0.0 0.0 16.49123897306068" Properties=species:S:1:pos:R:3:initial_magmoms:R:1:castep_labels:S:1 n_minim_iter=15 pbc="T T T"
P       -2.26825085       4.22966378      15.92490361       0.00000000 NULL
P        0.18013114       0.61293528       4.93074430       0.00000000 NULL
P        2.08811890       4.54166053      10.42782396       0.00000000 NULL
P        3.29910607       2.27468528       2.19171887       0.00000000 NULL
P        1.79851599       1.71976750       7.68879853       0.00000000 NULL
P        3.02938392       0.69767725      13.18587819       0.00000000 NULL
P        1.51566810       2.50864818      11.02129296       0.00000000 NULL
P        2.48761715       0.05828346       0.02713365       0.00000000 NULL
P        4.12372072       2.12519839       5.52421331       0.00000000 NULL
P        0.45616074       0.07580532       7.14524904       0.00000000 NULL
P        5.12427455       0.35714460      12.64232870       0.00000000 NULL
P        2.54657068       4.25918011       1.64816938       0.00000000 NULL
P        2.73119055       1.26176200       9.67255880       0.00000000 NULL
P        2.95969104       1.73439987      15.16963846       0.00000000 NULL
P        2.43612439       1.69596816       4.17547914       0.00000000 NULL
P        3.12684317       2.78460740      12.49809827       0.00000000 NULL
P        1.44304193       1.31562239       1.50393896       0.00000000 NULL
P        3.55712088       0.59190024       7.00101862       0.00000000 NULL
