21
Lattice="6.097149999999998 -1.1724604546278215e-16 0.0 -3.0485749999999996 5.280286790684289 0.0 0.0 0.0 14.75239" Properties=species:S:1:pos:R:3:initial_magmoms:R:1:castep_labels:S:1 n_minim_iter=1 pbc="T T T"
P       -0.92101902       3.68939235       2.57359722       0.00000000 NULL
P        0.31397701       2.63796475      12.40852389       0.00000000 NULL
P        0.60704201       4.23321649       7.49106055       0.00000000 NULL
P        4.91672896       1.04709566      10.85585893       0.00000000 NULL
P        2.73197408       3.73446436       5.93839560       0.00000000 NULL
P        1.49702196       0.49872678       1.02093226       0.00000000 NULL
P       -0.44127330       1.10504469       1.12716078       0.00000000 NULL
P        2.31221488       4.34561056      10.96208745       0.00000000 NULL
P       -1.87094158       5.10991833       6.04462411       0.00000000 NULL
P        2.90379817       3.32084417       7.89654720       0.00000000 NULL
P        1.76931550       0.85434090       2.97908387       0.00000000 NULL
P        4.47261133       1.10510172      12.81401053       0.00000000 NULL
P        3.76892279       3.90164298       9.61368114       0.00000000 NULL
P        0.83376667       1.31316139       4.69621781       0.00000000 NULL
P        4.54303554       0.06548242      14.53114447       0.00000000 NULL
P        2.29526175       1.61615322       6.20487884       0.00000000 NULL
P        3.54988938       1.17967838       1.28741551       0.00000000 NULL
P        3.30057387       2.48445520      11.12234217       0.00000000 NULL
P        3.29917549       3.70478069      12.75768984       0.00000000 NULL
P        1.23912806       1.00477944       7.84022651       0.00000000 NULL
P        4.60742145       0.57072666       2.92276317       0.00000000 NULL
21
Lattice="6.116927226469543 3.792951162652961e-16 0.0 -3.0584636132347724 5.297414371223312 0.0 0.0 0.0 14.821573930591185" Properties=species:S:1:pos:R:3:initial_magmoms:R:1:castep_labels:S:1 n_minim_iter=2 pbc="T T T"
P       -0.92406745       3.70152238       2.58566536       0.00000000 NULL
P        0.31488492       2.64638730      12.46671465       0.00000000 NULL
P        0.60918252       4.24691907       7.52619000       0.00000000 NULL
P        4.93289446       1.05072035      10.90648953       0.00000000 NULL
P        2.74052948       3.74665174       5.96596489       0.00000000 NULL
P        1.50196690       0.50004228       1.02544024       0.00000000 NULL
P       -0.44258095       1.10890628       1.13249044       0.00000000 NULL
P        2.31941308       4.35967489      11.01353972       0.00000000 NULL
P       -1.87683213       5.12624758       6.07301508       0.00000000 NULL
P        2.91301926       3.33151160       7.93371449       0.00000000 NULL
P        1.77524392       0.85699288       2.99318984       0.00000000 NULL
P        4.48712766       1.10890989      12.87423913       0.00000000 NULL
P        3.78152251       3.91445443       9.65873018       0.00000000 NULL
P        0.83614900       1.31766735       4.71820554       0.00000000 NULL
P        4.55771933       0.06529260      14.59925483       0.00000000 NULL
P        2.30300995       1.62143747       6.23387370       0.00000000 NULL
P        3.56121621       1.18374639       1.29334906       0.00000000 NULL
P        3.31116468       2.49223051      11.17439835       0.00000000 NULL
P        3.30990320       3.71688691      12.81776168       0.00000000 NULL
P        1.24305714       1.00801680       7.87723703       0.00000000 NULL
P        4.62243050       0.57251066       2.93671239       0.00000000 NULL
21
Lattice="6.3554800934529485 -1.029788156663822e-15 0.0 -3.177740046726474 5.504007214176552 0.0 0.0 0.0 15.644917574106232" Properties=species:S:1:pos:R:3:initial_magmoms:R:1:castep_labels:S:1 n_minim_iter=3 pbc="T T T"
P       -0.96092080       3.84806666       2.72926797       0.00000000 NULL
P        0.32567697       2.74779206      13.15921302       0.00000000 NULL
P        0.63524384       4.41215571       7.94424049       0.00000000 NULL
P        5.12808746       1.09460265      11.50889988       0.00000000 NULL
P        2.84348266       3.89375269       6.29392735       0.00000000 NULL
P        1.56165002       0.51565188       1.07895483       0.00000000 NULL
P       -0.45832306       1.15566153       1.19595628       0.00000000 NULL
P        2.40606933       4.52925704      11.62590133       0.00000000 NULL
P       -1.94774627       5.32309586       6.41092881       0.00000000 NULL
P        3.02402671       3.46017032       8.37613698       0.00000000 NULL
P        1.84687134       0.88879879       3.16116446       0.00000000 NULL
P        4.66232209       1.15503810      13.59110951       0.00000000 NULL
P        3.93366441       4.06909858      10.19487109       0.00000000 NULL
P        0.86470514       1.37210402       4.97989856       0.00000000 NULL
P        4.73485058       0.06280461      15.40984361       0.00000000 NULL
P        2.39658951       1.68512313       6.57884812       0.00000000 NULL
P        3.69782589       1.23294584       1.36387559       0.00000000 NULL
P        3.43880473       2.58593825      11.79382064       0.00000000 NULL
P        3.43927789       3.86293511      13.53274078       0.00000000 NULL
P        1.29044121       1.04703448       8.31776826       0.00000000 NULL
P        4.80350103       0.59403763       3.10279573       0.00000000 NULL
21
Lattice="6.482818340873275 1.2439780675057472e-15 0.0 -3.241409170436639 5.614285371315942 0.0 0.0 0.0 15.792625166251176" Properties=species:S:1:pos:R:3:initial_magmoms:R:1:castep_labels:S:1 n_minim_iter=4 pbc="T T T"
P       -0.98133289       3.92891999       2.75482047       0.00000000 NULL
P        0.32953109       2.79996617      13.28323724       0.00000000 NULL
P        0.65180179       4.49968458       8.01902886       0.00000000 NULL
P        5.23405538       1.11914928      11.61649419       0.00000000 NULL
P        2.89657895       3.97325029       6.35228580       0.00000000 NULL
P        1.59359318       0.52188581       1.08807741       0.00000000 NULL
P       -0.46660939       1.18151563       1.20783897       0.00000000 NULL
P        2.45149132       4.61943197      11.73625575       0.00000000 NULL
P       -1.98488193       5.42762315       6.47204736       0.00000000 NULL
P        3.08099283       3.52906399       8.45593911       0.00000000 NULL
P        1.88606286       0.90368607       3.19173072       0.00000000 NULL
P        4.75717182       1.18153532      13.72014750       0.00000000 NULL
P        4.01531708       4.15226267      10.29154666       0.00000000 NULL
P        0.87919485       1.40123526       5.02733827       0.00000000 NULL
P        4.82971558       0.06078744      15.55575504       0.00000000 NULL
P        2.44700397       1.71878666       6.64026182       0.00000000 NULL
P        3.77080344       1.25977428       1.37605343       0.00000000 NULL
P        3.50642009       2.63572444      11.90447021       0.00000000 NULL
P        3.50808545       3.94089737      13.66074943       0.00000000 NULL
P        1.31585838       1.06764243       8.39654104       0.00000000 NULL
P        4.90028368       0.60574557       3.13233265       0.00000000 NULL
21
Lattice="6.593908525991762 -9.025316757586051e-16 0.0 -3.2969542629958806 5.7104922937396685 0.0 0.0 0.0 15.692655826388561" Properties=species:S:1:pos:R:3:initial_magmoms:R:1:castep_labels:S:1 n_minim_iter=5 pbc="T T T"
P       -0.99977720       4.00221850       2.73708316       0.00000000 NULL
P        0.33081996       2.84355059      13.19885371       0.00000000 NULL
P        0.66895723       4.57521549       7.96796844       0.00000000 NULL
P        5.32806632       1.14139787      11.54245110       0.00000000 NULL
P        2.94139581       4.04354185       6.31156582       0.00000000 NULL
P        1.62140065       0.52555257       1.08068055       0.00000000 NULL
P       -0.47357933       1.20480267       1.20102611       0.00000000 NULL
P        2.49035421       4.69795924      11.66279666       0.00000000 NULL
P       -2.01677489       5.51822269       6.43191139       0.00000000 NULL
P        3.12838856       3.58923066       8.40311370       0.00000000 NULL
P        1.92134931       0.91464864       3.17222842       0.00000000 NULL
P        4.84112491       1.20661300      13.63399897       0.00000000 NULL
P        4.08720550       4.22542967      10.22732033       0.00000000 NULL
P        0.89097634       1.42690897       4.99643505       0.00000000 NULL
P        4.91268094       0.05815367      15.45820560       0.00000000 NULL
P        2.49140358       1.74813774       6.59752301       0.00000000 NULL
P        3.83427504       1.28354992       1.36663774       0.00000000 NULL
P        3.56518416       2.67880463      11.82840829       0.00000000 NULL
P        3.56788276       4.00915324      13.57333320       0.00000000 NULL
P        1.33793859       1.08530050       8.34244793       0.00000000 NULL
P        4.98504143       0.61603856       3.11156265       0.00000000 NULL
21
Lattice="6.731370715837861 5.741086935276883e-16 0.0 -3.3656853579189314 5.829538042206229 0.0 0.0 0.0 15.373253302622828" Properties=species:S:1:pos:R:3:initial_magmoms:R:1:castep_labels:S:1 n_minim_iter=6 pbc="T T T"
P       -1.02372297       4.09818613       2.68081643       0.00000000 NULL
P        0.32841355       2.89387489      12.92965196       0.00000000 NULL
P        0.69530942       4.66701508       7.80523420       0.00000000 NULL
P        5.44760079       1.17026167      11.30678782       0.00000000 NULL
P        2.99409399       4.13262984       6.18237005       0.00000000 NULL
P        1.65536129       0.52664653       1.05795228       0.00000000 NULL
P       -0.48168118       1.23495596       1.17794978       0.00000000 NULL
P        2.53702272       4.79491193      11.42678531       0.00000000 NULL
P       -2.05534154       5.62920821       6.30236754       0.00000000 NULL
P        3.18285447       3.66349282       8.23375127       0.00000000 NULL
P        1.96726563       0.92468643       3.10933351       0.00000000 NULL
P        4.94693596       1.24135880      13.35816904       0.00000000 NULL
P        4.17780291       4.31730648      10.02115264       0.00000000 NULL
P        0.90357217       1.45943021       4.89673487       0.00000000 NULL
P        5.01568099       0.05280135      15.14557041       0.00000000 NULL
P        2.54737530       1.78439815       6.46179529       0.00000000 NULL
P        3.91234894       1.31389265       1.33737752       0.00000000 NULL
P        3.63733183       2.73124724      11.58621305       0.00000000 NULL
P        3.64149887       4.09446748      13.29476464       0.00000000 NULL
P        1.36470842       1.10639679       8.17034687       0.00000000 NULL
P        5.09084878       0.62867377       3.04592910       0.00000000 NULL
21
Lattice="6.842664755841164 -1.8822357903531608e-15 0.0 -3.4213323779205806 5.9259215081388925 0.0 0.0 0.0 15.13336402539065" Properties=species:S:1:pos:R:3:initial_magmoms:R:1:castep_labels:S:1 n_minim_iter=7 pbc="T T T"
P       -1.04586788       4.18921667       2.63780516       0.00000000 NULL
P        0.31629826       2.92556503      12.72671451       0.00000000 NULL
P        0.72956962       4.73706133       7.68225983       0.00000000 NULL
P        5.55314677       1.19648721      11.12724597       0.00000000 NULL
P        3.02990305       4.21092257       6.08279130       0.00000000 NULL
P        1.68094731       0.51851173       1.03833662       0.00000000 NULL
P       -0.48677299       1.26260268       1.16108196       0.00000000 NULL
P        2.57127288       4.87306240      11.24999131       0.00000000 NULL
P       -2.08449989       5.71617794       6.20553664       0.00000000 NULL
P        3.21659064       3.72219089       8.11047116       0.00000000 NULL
P        2.01085757       0.92455377       3.06601648       0.00000000 NULL
P        5.03654892       1.27917685      13.15492583       0.00000000 NULL
P        4.25592618       4.39542163       9.86849561       0.00000000 NULL
P        0.90815488       1.48802938       4.82404094       0.00000000 NULL
P        5.09991607       0.04247051      14.91295029       0.00000000 NULL
P        2.59554931       1.81350249       6.35761461       0.00000000 NULL
P        3.97435087       1.34106040       1.31315994       0.00000000 NULL
P        3.69409695       2.77135862      11.40206929       0.00000000 NULL
P        3.70021268       4.16640253      13.08451178       0.00000000 NULL
P        1.38434798       1.12127691       8.04005711       0.00000000 NULL
P        5.17943647       0.63824207       2.99560243       0.00000000 NULL
21
Lattice="6.815801596644989 -1.2646779923627014e-15 0.0 -3.4079007983224936 5.902657329849099 0.0 0.0 0.0 15.053697677643909" Properties=species:S:1:pos:R:3:initial_magmoms:R:1:castep_labels:S:1 n_minim_iter=8 pbc="T T T"
P       -1.04615995       4.19371061       2.62267232       0.00000000 NULL
P        0.29912085       2.89980093      12.65847077       0.00000000 NULL
P        0.74703910       4.71180312       7.64057155       0.00000000 NULL
P        5.54496919       1.19647713      11.06521031       0.00000000 NULL
P        3.00713741       4.20384562       6.04731108       0.00000000 NULL
P        1.67159579       0.50233459       1.02941186       0.00000000 NULL
P       -0.48304750       1.26230093       1.15555777       0.00000000 NULL
P        2.55623987       4.85317546      11.19135622       0.00000000 NULL
P       -2.07319237       5.68983827       6.17345700       0.00000000 NULL
P        3.18776513       3.70561474       8.07361868       0.00000000 NULL
P        2.01276253       0.90787822       3.05571945       0.00000000 NULL
P        5.02317473       1.28916438      13.09151791       0.00000000 NULL
P        4.24579052       4.38357735       9.81990686       0.00000000 NULL
P        0.89661699       1.48517378       4.80200764       0.00000000 NULL
P        5.08129487       0.03390621      14.83780609       0.00000000 NULL
P        2.58932129       1.80571426       6.32093256       0.00000000 NULL
P        3.95734653       1.33956089       1.30303333       0.00000000 NULL
P        3.67703457       2.75738218      11.33883178       0.00000000 NULL
P        3.68416554       4.15406892      13.01375702       0.00000000 NULL
P        1.37618961       1.11354650       7.99585780       0.00000000 NULL
P        5.16334724       0.63504192       2.97795857       0.00000000 NULL
21
Lattice="6.821972102564214 6.043904153681448e-16 0.0 -3.4109860512821077 5.908001144729349 0.0 0.0 0.0 15.078959469977155" Properties=species:S:1:pos:R:3:initial_magmoms:R:1:castep_labels:S:1 n_minim_iter=9 pbc="T T T"
P       -1.04860831       4.20418230       2.62664936       0.00000000 NULL
P        0.29436153       2.89778856      12.67928901       0.00000000 NULL
P        0.75424678       4.71403143       7.65296919       0.00000000 NULL
P        5.55433877       1.19920425      11.08266804       0.00000000 NULL
P        3.00626137       4.21059635       6.05634822       0.00000000 NULL
P        1.67235801       0.49820055       1.03002840       0.00000000 NULL
P       -0.48270657       1.26500980       1.15759879       0.00000000 NULL
P        2.55680871       4.85746010      11.21023843       0.00000000 NULL
P       -2.07410215       5.69353240       6.18391861       0.00000000 NULL
P        3.18556358       3.70840605       8.08903426       0.00000000 NULL
P        2.01761647       0.90457596       3.06271444       0.00000000 NULL
P        5.02977811       1.29501914      13.11535409       0.00000000 NULL
P        4.25173722       4.38927185       9.83735392       0.00000000 NULL
P        0.89488256       1.48747652       4.81103409       0.00000000 NULL
P        5.08633837       0.03125278      14.86367374       0.00000000 NULL
P        2.59311303       1.80717176       6.33044088       0.00000000 NULL
P        3.96035893       1.34211588       1.30412105       0.00000000 NULL
P        3.67948619       2.75871351      11.35676070       0.00000000 NULL
P        3.68707931       4.15912577      13.03529235       0.00000000 NULL
P        1.37652387       1.11354146       8.00897253       0.00000000 NULL
P        5.16935497       0.63533391       2.98265270       0.00000000 NULL
21
Lattice="6.819724291432579 -4.123327150668455e-16 0.0 -3.4098621457162896 5.906054483186445 0.0 0.0 0.0 15.064971154180103" Properties=species:S:1:pos:R:3:initial_magmoms:R:1:castep_labels:S:1 n_minim_iter=10 pbc="T T T"
P       -1.04974151       4.20933124       2.62380029       0.00000000 NULL
P        0.28934511       2.89228605      12.66711439       0.00000000 NULL
P        0.76039639       4.71049168       7.64545734       0.00000000 NULL
P        5.55666319       1.20042117      11.07151797       0.00000000 NULL
P        3.00179746       4.21200090       6.04986092       0.00000000 NULL
P        1.67112578       0.49363241       1.02820387       0.00000000 NULL
P       -0.48188424       1.26601558       1.15662205       0.00000000 NULL
P        2.55440261       4.85572270      11.19993615       0.00000000 NULL
P       -2.07251837       5.69037069       6.17827910       0.00000000 NULL
P        3.17958386       3.70674276       8.08321453       0.00000000 NULL
P        2.01979896       0.90022902       3.06155748       0.00000000 NULL
P        5.03020361       1.29908271      13.10487158       0.00000000 NULL
P        4.25220783       4.38942409       9.82916801       0.00000000 NULL
P        0.89226761       1.48780796       4.80751096       0.00000000 NULL
P        5.08511100       0.02882244      14.85082506       0.00000000 NULL
P        2.59353788       1.80636790       6.32354942       0.00000000 NULL
P        3.95859486       1.34288575       1.30189237       0.00000000 NULL
P        3.67745369       2.75680085      11.34520647       0.00000000 NULL
P        3.68541430       4.15896346      13.02277889       0.00000000 NULL
P        1.37524913       1.11218068       8.00112184       0.00000000 NULL
P        5.16892300       0.63491035       2.97946479       0.00000000 NULL
21
Lattice="6.81568996168196 1.1248118055748357e-15 0.0 -3.407844980840981 5.902560651135164 0.0 0.0 0.0 15.03612010522863" Properties=species:S:1:pos:R:3:initial_magmoms:R:1:castep_labels:S:1 n_minim_iter=11 pbc="T T T"
P       -1.05249268       4.22151818       2.61783666       0.00000000 NULL
P        0.27814934       2.88031617      12.64191673       0.00000000 NULL
P        0.77434334       4.70328696       7.62987669       0.00000000 NULL
P        5.56266844       1.20339131      11.04844637       0.00000000 NULL
P        2.99218829       4.21571653       6.03640634       0.00000000 NULL
P        1.66867820       0.48345281       1.02436630       0.00000000 NULL
P       -0.48008324       1.26842581       1.15458473       0.00000000 NULL
P        2.54939763       4.85258347      11.17866480       0.00000000 NULL
P       -2.06931439       5.68411203       6.16662477       0.00000000 NULL
P        3.16669945       3.70362537       8.07148186       0.00000000 NULL
P        2.02490658       0.89062949       3.05944182       0.00000000 NULL
P        5.03192891       1.30830580      13.08352189       0.00000000 NULL
P        4.25379319       4.39037154       9.81240934       0.00000000 NULL
P        0.88662009       1.48870720       4.80036930       0.00000000 NULL
P        5.08312167       0.02348192      14.82444937       0.00000000 NULL
P        2.59487099       1.80482177       6.30914967       0.00000000 NULL
P        3.95523296       1.34481332       1.29710964       0.00000000 NULL
P        3.67343099       2.75292557      11.32118971       0.00000000 NULL
P        3.68222420       4.15919239      12.99694500       0.00000000 NULL
P        1.37261159       1.10930351       7.98490497       0.00000000 NULL
P        5.16869915       0.63406476       2.97286493       0.00000000 NULL
21
Lattice="6.803009130603404 -1.3241061517051306e-15 0.0 -3.401504565301701 5.891578729280036 0.0 0.0 0.0 14.919894986558354" Properties=species:S:1:pos:R:3:initial_magmoms:R:1:castep_labels:S:1 n_minim_iter=12 pbc="T T T"
P       -1.06534036       4.27602968       2.59350583       0.00000000 NULL
P        0.23102442       2.83095208      12.54010248       0.00000000 NULL
P        0.83431594       4.67617570       7.56680415       0.00000000 NULL
P        5.59143432       1.21735129      10.95594613       0.00000000 NULL
P        2.95303483       4.23364852       5.98264780       0.00000000 NULL
P        1.66004454       0.44057892       1.00934947       0.00000000 NULL
P       -0.47258521       1.27910991       1.14606702       0.00000000 NULL
P        2.53005549       4.84275298      11.09266368       0.00000000 NULL
P       -2.05747029       5.66129457       6.11936535       0.00000000 NULL
P        3.11473026       3.69341742       8.02460151       0.00000000 NULL
P        2.04705069       0.85072683       3.05130318       0.00000000 NULL
P        5.04273274       1.34743449      12.99789984       0.00000000 NULL
P        4.26227887       4.39681802       9.74492724       0.00000000 NULL
P        0.86411359       1.49283277       4.77162891       0.00000000 NULL
P        5.07812123       0.00192794      14.71822557       0.00000000 NULL
P        2.60208244       1.79931835       6.25070105       0.00000000 NULL
P        3.94371251       1.35381033       1.27740272       0.00000000 NULL
P        3.65871874       2.73845006      11.22399938       0.00000000 NULL
P        3.67105835       4.16264274      12.89307509       0.00000000 NULL
P        1.36252560       1.09790842       7.91977676       0.00000000 NULL
P        5.17092975       0.63102757       2.94647843       0.00000000 NULL
21
Lattice="6.8507164742270215 1.0980911922910785e-15 0.0 -3.425358237113512 5.932894500805162 0.0 0.0 0.0 14.664062167643019" Properties=species:S:1:pos:R:3:initial_magmoms:R:1:castep_labels:S:1 n_minim_iter=13 pbc="T T T"
P       -1.13098512       4.51977788       2.53317510       0.00000000 NULL
P        0.07660833       2.69354372      12.30921654       0.00000000 NULL
P        1.05437679       4.65246740       7.42119582       0.00000000 NULL
P        5.76167860       1.29071449      10.75355349       0.00000000 NULL
P        2.85208564       4.34440279       5.86553277       0.00000000 NULL
P        1.66231047       0.29777722       0.97751205       0.00000000 NULL
P       -0.45155313       1.32831033       1.12387444       0.00000000 NULL
P        2.50078431       4.87768286      10.89991589       0.00000000 NULL
P       -2.04923118       5.65979581       6.01189516       0.00000000 NULL
P        2.98881974       3.71425499       7.93546491       0.00000000 NULL
P        2.13966742       0.73126632       3.04744418       0.00000000 NULL
P        5.14758755       1.48737319      12.82348563       0.00000000 NULL
P        4.33453138       4.47269177       9.60238610       0.00000000 NULL
P        0.80998609       1.51746841       4.71436537       0.00000000 NULL
P        5.13155724      -0.05726567      14.49040682       0.00000000 NULL
P        2.65923333       1.80246042       6.11063493       0.00000000 NULL
P        3.96012330       1.40173341       1.22261421       0.00000000 NULL
P        3.65671808       2.72870068      10.99865565       0.00000000 NULL
P        3.68122799       4.22761554      12.66479366       0.00000000 NULL
P        1.34888003       1.07422919       7.77677294       0.00000000 NULL
P        5.24596669       0.63104978       2.88875221       0.00000000 NULL
21
Lattice="7.065540275578252 -1.4719929273033787e-15 0.0 -3.532770137789125 6.118937370112871 0.0 0.0 0.0 11.908716954567796" Properties=species:S:1:pos:R:3:initial_magmoms:R:1:castep_labels:S:1 n_minim_iter=14 pbc="T T T"
P       -1.23447004       4.76164334       2.03868010       0.00000000 NULL
P        0.02630106       2.66903329       9.97782474       0.00000000 NULL
P        1.20816898       4.80719811       6.00825242       0.00000000 NULL
P        6.03552741       1.39866862       8.73766293       0.00000000 NULL
P        2.83649402       4.52758576       4.76809061       0.00000000 NULL
P        1.72628898       0.19268300       0.79851829       0.00000000 NULL
P       -0.45618938       1.37908773       0.90872515       0.00000000 NULL
P        2.56653982       5.03432192       8.84786979       0.00000000 NULL
P       -2.11035044       5.82446510       4.87829747       0.00000000 NULL
P        3.04701396       3.80112026       6.47673151       0.00000000 NULL
P        2.25016659       0.73823137       2.50715920       0.00000000 NULL
P        5.30112986       1.57958575      10.44630383       0.00000000 NULL
P        4.45094771       4.63429287       7.81847596       0.00000000 NULL
P        0.82665107       1.53748736       3.84890365       0.00000000 NULL
P        5.32071163      -0.05284285      11.78804828       0.00000000 NULL
P        2.74457193       1.83562415       4.94186015       0.00000000 NULL
P        4.10355716       1.45905694       0.97228783       0.00000000 NULL
P        3.75018132       2.82425628       8.91143246       0.00000000 NULL
P        3.77316271       4.38230942      10.27084021       0.00000000 NULL
P        1.38376763       1.07650005       6.30126789       0.00000000 NULL
P        5.44138006       0.66012790       2.33169558       0.00000000 NULL
21
Lattice="7.464547667975527 1.1604911592001004e-15 0.0 -3.732273833987765 6.464487908226696 0.0 0.0 0.0 13.666424447671627" Properties=species:S:1:pos:R:3:initial_magmoms:R:1:castep_labels:S:1 n_minim_iter=15 pbc="T T T"
P       -1.30405612       5.02586323       2.34063676       0.00000000 NULL
P        0.03177666       2.82221057      11.45158639       0.00000000 NULL
P        1.27227945       5.08090202       6.89611158       0.00000000 NULL
P        6.38328291       1.47325058      10.01565252       0.00000000 NULL
P        2.99703379       4.79145987       5.46017771       0.00000000 NULL
P        1.81650480       0.19977747       0.90470289       0.00000000 NULL
P       -0.47396411       1.46204227       1.03989105       0.00000000 NULL
P        2.70309014       5.32300182      10.15084068       0.00000000 NULL
P       -2.22912604       6.14393173       5.59536587       0.00000000 NULL
P        3.21863896       4.00506707       7.43995272       0.00000000 NULL
P        2.38673836       0.78488958       2.88447791       0.00000000 NULL
P        5.59144417       1.67453127      11.99542754       0.00000000 NULL
P        4.70771740       4.89901068       8.97390319       0.00000000 NULL
P        0.86802126       1.62749752       4.41842837       0.00000000 NULL
P        5.62108284      -0.06202029      13.52937801       0.00000000 NULL
P        2.90504131       1.94044047       5.67045031       0.00000000 NULL
P        4.33155627       1.54561934       1.11497549       0.00000000 NULL
P        3.96022392       2.97842810      10.22592513       0.00000000 NULL
P        3.99340936       4.63059734      11.79250655       0.00000000 NULL
P        1.45762805       1.14309529       7.23703174       0.00000000 NULL
P        5.74578408       0.69079528       2.68155692       0.00000000 NULL
21
Lattice="7.272152133642644 -1.3048585771262314e-16 0.0 -3.6360760668213223 6.297868487919739 0.0 0.0 0.0 13.540747013402397" Properties=species:S:1:pos:R:3:initial_magmoms:R:1:castep_labels:S:1 n_minim_iter=16 pbc="T T T"
P       -1.27154905       4.89959840       2.31886736       0.00000000 NULL
P        0.02867391       2.74687551      11.34603204       0.00000000 NULL
P        1.24287514       4.94926307       6.83244970       0.00000000 NULL
P        6.21997604       1.43504015       9.92334315       0.00000000 NULL
P        2.91938289       4.66913719       5.40976081       0.00000000 NULL
P        1.76886927       0.19369115       0.89617847       0.00000000 NULL
P       -0.46267831       1.42277780       1.03003307       0.00000000 NULL
P        2.63525350       5.18578842      10.05719775       0.00000000 NULL
P       -2.17257520       5.98717076       5.54361541       0.00000000 NULL
P        3.13416922       3.90064503       7.37183302       0.00000000 NULL
P        2.32700984       0.76394765       2.85825068       0.00000000 NULL
P        5.44704914       1.63327581      11.88541536       0.00000000 NULL
P        4.58362426       4.77204769       8.89239677       0.00000000 NULL
P        0.84762548       1.58351120       4.37881443       0.00000000 NULL
P        5.47697846      -0.05769040      13.40597911       0.00000000 NULL
P        2.82739456       1.88981434       5.61851583       0.00000000 NULL
P        4.22182763       1.50368835       1.10493349       0.00000000 NULL
P        3.85900601       2.90436581      10.13209816       0.00000000 NULL
P        3.89029973       4.51078256      11.68327803       0.00000000 NULL
P        1.42054998       1.11370712       7.16969569       0.00000000 NULL
P        5.59737848       0.67337882       2.65611335       0.00000000 NULL
21
Lattice="7.18107874674204 -6.148462587505178e-16 0.0 -3.59053937337102 6.218996621255127 0.0 0.0 0.0 13.669888082082085" Properties=species:S:1:pos:R:3:initial_magmoms:R:1:castep_labels:S:1 n_minim_iter=17 pbc="T T T"
P       -1.25683127       4.84019042       2.34104854       0.00000000 NULL
P        0.02722715       2.71045361      11.45430726       0.00000000 NULL
P        1.22960412       4.88734922       6.89767790       0.00000000 NULL
P        6.14351751       1.41651382      10.01666258       0.00000000 NULL
P        2.88258304       4.61218532       5.46003322       0.00000000 NULL
P        1.74551757       0.19029749       0.90340386       0.00000000 NULL
P       -0.45653838       1.40449076       1.03934122       0.00000000 NULL
P        2.60248389       5.12137741      10.15259994       0.00000000 NULL
P       -2.14594551       5.91212508       5.59597058       0.00000000 NULL
P        3.09372137       3.84960496       7.44289006       0.00000000 NULL
P        2.30036237       0.75443882       2.88626070       0.00000000 NULL
P        5.37753438       1.61495285      11.99951942       0.00000000 NULL
P        4.52482628       4.71244507       8.97811791       0.00000000 NULL
P        0.83756846       1.56239198       4.42148855       0.00000000 NULL
P        5.40922337      -0.05584042      13.53474727       0.00000000 NULL
P        2.79068074       1.86557770       5.67203268       0.00000000 NULL
P        4.17010069       1.48401157       1.11540332       0.00000000 NULL
P        3.81083668       2.86940735      10.22866204       0.00000000 NULL
P        3.84210084       4.45438874      11.79488104       0.00000000 NULL
P        1.40241452       1.10016256       7.23825168       0.00000000 NULL
P        5.52710276       0.66444532       2.68162232       0.00000000 NULL
21
Lattice="7.093037245772618 6.622694709783751e-16 0.0 -3.54651862288631 6.142750444828295 0.0 0.0 0.0 13.952628937646951" Properties=species:S:1:pos:R:3:initial_magmoms:R:1:castep_labels:S:1 n_minim_iter=18 pbc="T T T"
P       -1.24360262       4.78295844       2.38979335       0.00000000 NULL
P        0.02615642       2.67427976      11.69154598       0.00000000 NULL
P        1.21744620       4.82826269       7.04066966       0.00000000 NULL
P        6.07033619       1.39834276      10.22155653       0.00000000 NULL
P        2.84686879       4.55789398       5.57068022       0.00000000 NULL
P        1.72235088       0.18651371       0.91980390       0.00000000 NULL
P       -0.44979560       1.38698431       1.06002419       0.00000000 NULL
P        2.57025277       5.05972388      10.36177682       0.00000000 NULL
P       -2.12045718       5.83879270       5.71090050       0.00000000 NULL
P        3.05441279       3.79850932       7.59796589       0.00000000 NULL
P        2.27622528       0.74594441       2.94708958       0.00000000 NULL
P        5.30891780       1.59829672      12.24884221       0.00000000 NULL
P        4.46764828       4.65528855       9.16519507       0.00000000 NULL
P        0.82761496       1.54145263       4.51431876       0.00000000 NULL
P        5.34429263      -0.05399073      13.81607138       0.00000000 NULL
P        2.75493372       1.84161919       5.78901948       0.00000000 NULL
P        4.12068138       1.46503300       1.13814317       0.00000000 NULL
P        3.76394076       2.83609826      10.43989579       0.00000000 NULL
P        3.79583164       4.40029050      12.03943733       0.00000000 NULL
P        1.38435807       1.08714139       7.38856102       0.00000000 NULL
P        5.45936615       0.65531857       2.73768471       0.00000000 NULL
21
Lattice="6.998522379875077 9.118761430654928e-16 0.0 -3.499261189937539 6.0608981699257445 0.0 0.0 0.0 14.198015991288273" Properties=species:S:1:pos:R:3:initial_magmoms:R:1:castep_labels:S:1 n_minim_iter=19 pbc="T T T"
P       -1.23146335       4.72115638       2.43244823       0.00000000 NULL
P        0.02635150       2.63384143      11.89779222       0.00000000 NULL
P        1.20511185       4.76679853       7.16512023       0.00000000 NULL
P        5.99223571       1.37942699      10.39905405       0.00000000 NULL
P        2.80778571       4.49971486       5.66638205       0.00000000 NULL
P        1.69776215       0.18175633       0.93371005       0.00000000 NULL
P       -0.44191641       1.36809784       1.07789545       0.00000000 NULL
P        2.53541191       4.99413842      10.54323944       0.00000000 NULL
P       -2.09349551       5.75956009       5.81056744       0.00000000 NULL
P        3.01312298       3.74175937       7.73264689       0.00000000 NULL
P        2.25150222       0.73856137       2.99997489       0.00000000 NULL
P        5.23315837       1.58057744      12.46531888       0.00000000 NULL
P        4.40519272       4.59441058       9.32836988       0.00000000 NULL
P        0.81704974       1.51780351       4.59569788       0.00000000 NULL
P        5.27554111      -0.05131592      14.06104187       0.00000000 NULL
P        2.71564869       1.81473864       5.88999657       0.00000000 NULL
P        4.06908827       1.44445143       1.15732457       0.00000000 NULL
P        3.71304661       2.80170810      10.62266856       0.00000000 NULL
P        3.74550217       4.34285376      12.25138954       0.00000000 NULL
P        1.36474961       1.07227315       7.51871754       0.00000000 NULL
P        5.38753179       0.64577126       2.78604554       0.00000000 NULL
