12
Lattice="5.07756 5.342615018715971e-16 -1.5274058829859726e-16 0.5880004373899836 6.640377333798823 -2.177848832062641e-15 2.067774491638671 1.6500957047793585 7.513324552313515" Properties=species:S:1:pos:R:3:initial_magmoms:R:1:castep_labels:S:1 n_minim_iter=1 pbc="T T T"
P        4.38980875       7.64876335       6.39465289       0.00000000 NULL
P        3.01248327       1.95067168       3.20464630       0.00000000 NULL
P        5.56864353       3.43257403       6.05616184       0.00000000 NULL
P        5.87854371       4.60112093       3.62647740       0.00000000 NULL
P        4.84268542       2.88497422       3.23624584       0.00000000 NULL
P        4.08718029       5.69553963       6.78015781       0.00000000 NULL
P        5.98028668       5.33014324       7.49257500       0.00000000 NULL
P        2.18192102       6.37468324       4.70139071       0.00000000 NULL
P        5.65928266       5.37952449       5.51006110       0.00000000 NULL
P        6.74796703       7.98796343       6.29911045       0.00000000 NULL
P        5.82391189       6.50867851       2.94191285       0.00000000 NULL
P        5.25773944       2.81659827       1.27910218       0.00000000 NULL
12
Lattice="5.083903124871853 0.002099300023896634 -0.00020754561368595845 0.5914804365420565 6.657242967509391 -0.003108248454732564 2.0707327708524566 1.6515915556657175 7.52791809557306" Properties=species:S:1:pos:R:3:initial_magmoms:R:1:castep_labels:S:1 n_minim_iter=2 pbc="T T T"
P        4.39822985       7.66707251       6.40402692       0.00000000 NULL
P        3.01684998       1.95528250       3.21023262       0.00000000 NULL
P        5.57673406       3.44045438       6.06687999       0.00000000 NULL
P        5.88776396       4.61326480       3.63143826       0.00000000 NULL
P        4.84966763       2.89253087       3.24150234       0.00000000 NULL
P        4.09396908       5.70817914       6.79139411       0.00000000 NULL
P        5.98978523       5.34245071       7.50565807       0.00000000 NULL
P        2.18729424       6.38958219       4.70788206       0.00000000 NULL
P        5.66826926       5.39287591       5.51833842       0.00000000 NULL
P        6.75945656       8.00778370       6.30811628       0.00000000 NULL
P        5.83373647       6.52622710       2.94462020       0.00000000 NULL
P        5.26564894       2.82511052       1.28006804       0.00000000 NULL
12
Lattice="5.221034284363188 0.049498626006968936 -0.0049515477106644185 0.669349056835273 7.029749894621344 -0.07454690009405467 2.134961752959541 1.6818877831447576 7.848087462459294" Properties=species:S:1:pos:R:3:initial_magmoms:R:1:castep_labels:S:1 n_minim_iter=3 pbc="T T T"
P        4.58314268       8.06981095       6.60645832       0.00000000 NULL
P        3.11187724       2.05635412       3.33215248       0.00000000 NULL
P        5.75263908       3.61292415       6.30096623       0.00000000 NULL
P        6.08879507       4.88107867       3.73810942       0.00000000 NULL
P        5.00139917       3.05875514       3.35572753       0.00000000 NULL
P        4.24230121       5.98509630       7.03588777       0.00000000 NULL
P        6.19695104       5.61212328       7.79112076       0.00000000 NULL
P        2.30590845       6.71740042       4.84750158       0.00000000 NULL
P        5.86434400       5.68659419       5.69748482       0.00000000 NULL
P        7.01062598       8.44405436       6.50231592       0.00000000 NULL
P        6.04862034       6.91380756       3.00097677       0.00000000 NULL
P        5.43792259       3.01354301       1.29976902       0.00000000 NULL
12
Lattice="5.2350727181436625 0.06280182095373973 -0.006864152028372348 0.6883725325588181 7.137936245768673 -0.11266116253026537 2.1421718781252235 1.6709320368577714 7.940516683853898" Properties=species:S:1:pos:R:3:initial_magmoms:R:1:castep_labels:S:1 n_minim_iter=4 pbc="T T T"
P        4.61481390       8.17105144       6.64797478       0.00000000 NULL
P        3.12431069       2.07735945       3.36473093       0.00000000 NULL
P        5.77466141       3.64723700       6.36328546       0.00000000 NULL
P        6.11710905       4.94947918       3.75639765       0.00000000 NULL
P        5.01800617       3.09604600       3.38210587       0.00000000 NULL
P        4.26010164       6.04861086       7.09541484       0.00000000 NULL
P        6.22628598       5.66892279       7.86701239       0.00000000 NULL
P        2.32804520       6.80377874       4.87224007       0.00000000 NULL
P        5.89133050       5.75678606       5.73483226       0.00000000 NULL
P        7.04630829       8.55215782       6.54001689       0.00000000 NULL
P        6.08125950       7.01798849       3.00378060       0.00000000 NULL
P        5.46374162       3.06301311       1.29811741       0.00000000 NULL
12
Lattice="5.216502036065336 0.06703203090329163 -0.011903135424834264 0.6917542003444341 7.175268018887129 -0.1508250232711043 2.1285276771512955 1.639289083400236 7.971263276475465" Properties=species:S:1:pos:R:3:initial_magmoms:R:1:castep_labels:S:1 n_minim_iter=5 pbc="T T T"
P        4.60136434       8.18376499       6.63560888       0.00000000 NULL
P        3.11237781       2.07282423       3.37022103       0.00000000 NULL
P        5.75138285       3.63682049       6.37386310       0.00000000 NULL
P        6.09728907       4.96030099       3.74101892       0.00000000 NULL
P        4.99569831       3.09393431       3.37871306       0.00000000 NULL
P        4.23686786       6.04677300       7.09766723       0.00000000 NULL
P        6.20290218       5.65841157       7.87955607       0.00000000 NULL
P        2.32105452       6.82063466       4.85751159       0.00000000 NULL
P        5.86921299       5.76011094       5.72408406       0.00000000 NULL
P        7.01952527       8.56381178       6.52271884       0.00000000 NULL
P        6.06359756       7.04229101       2.98175139       0.00000000 NULL
P        5.45075097       3.07300575       1.28379963       0.00000000 NULL
12
Lattice="5.182748474941194 0.07179559801834051 -0.016088350578531647 0.6940751526117304 7.183121465566342 -0.1987151897506027 2.11013709371565 1.5894059922230113 7.968302047596167" Properties=species:S:1:pos:R:3:initial_magmoms:R:1:castep_labels:S:1 n_minim_iter=6 pbc="T T T"
P        4.57761195       8.15378412       6.58554271       0.00000000 NULL
P        3.09223575       2.05510154       3.36057723       0.00000000 NULL
P        5.71310062       3.60362775       6.35557108       0.00000000 NULL
P        6.06137920       4.94698492       3.70244902       0.00000000 NULL
P        4.95880601       3.07346278       3.35746407       0.00000000 NULL
P        4.20115072       6.01142387       7.06347098       0.00000000 NULL
P        6.16371851       5.61213751       7.85547375       0.00000000 NULL
P        2.30884033       6.80502482       4.81282647       0.00000000 NULL
P        5.83158293       5.73158015       5.68164443       0.00000000 NULL
P        6.97335599       8.53030644       6.46781820       0.00000000 NULL
P        6.03014860       7.03307540       2.94112771       0.00000000 NULL
P        5.42447330       3.06792653       1.26142584       0.00000000 NULL
12
Lattice="5.128238651037072 0.09791930223009847 -0.012575678804286202 0.7219270052781598 7.180328764544428 -0.3102539102633151 2.1016260040949994 1.4719369212344722 7.943037510296393" Properties=species:S:1:pos:R:3:initial_magmoms:R:1:castep_labels:S:1 n_minim_iter=7 pbc="T T T"
P        4.58218149       8.06884129       6.45863765       0.00000000 NULL
P        3.07244387       2.01418478       3.33620250       0.00000000 NULL
P        5.67656814       3.53105958       6.30825205       0.00000000 NULL
P        6.02849803       4.91746908       3.61295455       0.00000000 NULL
P        4.91410022       3.02971116       3.30979795       0.00000000 NULL
P        4.17173110       5.92101960       6.97149232       0.00000000 NULL
P        6.13572097       5.50015422       7.79003557       0.00000000 NULL
P        2.32276476       6.75347549       4.69786267       0.00000000 NULL
P        5.80095362       5.66193488       5.58026842       0.00000000 NULL
P        6.93798005       8.44347470       6.33652992       0.00000000 NULL
P        6.00626799       7.00506471       2.85193681       0.00000000 NULL
P        5.40081677       3.06097616       1.21932869       0.00000000 NULL
12
Lattice="5.120397033781475 0.16017288291462708 0.021643688904014923 0.8024334673877466 7.158154784976859 -0.4471063107831155 2.1692984462773732 1.330660626380569 7.942319147469005" Properties=species:S:1:pos:R:3:initial_magmoms:R:1:castep_labels:S:1 n_minim_iter=8 pbc="T T T"
P        4.72104569       7.96158645       6.34090668       0.00000000 NULL
P        3.11092890       1.96955297       3.33315448       0.00000000 NULL
P        5.75335265       3.46469343       6.29723197       0.00000000 NULL
P        6.10438106       4.89886420       3.53497949       0.00000000 NULL
P        4.95377683       2.99456780       3.28761690       0.00000000 NULL
P        4.25686092       5.81327361       6.89572193       0.00000000 NULL
P        6.24355805       5.37148425       7.76083022       0.00000000 NULL
P        2.43381678       6.68185330       4.57659894       0.00000000 NULL
P        5.89430253       5.59018810       5.50390938       0.00000000 NULL
P        7.05685736       8.34805833       6.22934465       0.00000000 NULL
P        6.09906905       6.98204298       2.78233745       0.00000000 NULL
P        5.46108393       3.07183305       1.20158208       0.00000000 NULL
12
Lattice="5.042490878728688 0.2060227422717373 0.0440853263612473 0.8533735869700798 7.068330646849149 -0.5527392447422153 2.1856794642332193 1.2032322794550856 7.9206965934445765" Properties=species:S:1:pos:R:3:initial_magmoms:R:1:castep_labels:S:1 n_minim_iter=9 pbc="T T T"
P        4.75690858       7.79434985       6.22975300       0.00000000 NULL
P        3.09627095       1.90875196       3.32234080       0.00000000 NULL
P        5.72879957       3.37934841       6.27031813       0.00000000 NULL
P        6.07298008       4.83066630       3.45041550       0.00000000 NULL
P        4.91098891       2.93483384       3.25905299       0.00000000 NULL
P        4.25996169       5.66692382       6.81723478       0.00000000 NULL
P        6.22669982       5.20541166       7.71442951       0.00000000 NULL
P        2.48389244       6.55639403       4.46458737       0.00000000 NULL
P        5.88357803       5.47710774       5.42954224       0.00000000 NULL
P        7.04232713       8.18613582       6.13069249       0.00000000 NULL
P        6.08200160       6.89289475       2.71987448       0.00000000 NULL
P        5.43431950       3.04591992       1.18113342       0.00000000 NULL
12
Lattice="5.0839317537521795 0.23590397848497188 0.05033989334157253 0.89725094859572 7.121458534143991 -0.5867343535592051 2.2215214583152356 1.1884595035659853 7.968051495604167" Properties=species:S:1:pos:R:3:initial_magmoms:R:1:castep_labels:S:1 n_minim_iter=10 pbc="T T T"
P        4.84657621       7.84695343       6.23976695       0.00000000 NULL
P        3.13524490       1.92084884       3.34163281       0.00000000 NULL
P        5.80256554       3.40913797       6.30400712       0.00000000 NULL
P        6.15262918       4.88076194       3.45063463       0.00000000 NULL
P        4.96961803       2.96566982       3.27287838       0.00000000 NULL
P        4.32984045       5.69923416       6.84108509       0.00000000 NULL
P        6.31438296       5.23518823       7.75263951       0.00000000 NULL
P        2.54818787       6.59809931       4.46221629       0.00000000 NULL
P        5.96963715       5.52245688       5.44446680       0.00000000 NULL
P        7.14967036       8.25232526       6.14498984       0.00000000 NULL
P        6.17082579       6.96211774       2.71739371       0.00000000 NULL
P        5.50214702       3.08828155       1.18306740       0.00000000 NULL
12
Lattice="5.074754411278616 0.24917876832206678 0.053789055485027534 0.9135488027139695 7.099255009655197 -0.605422213117925 2.227201878367684 1.1663695394675213 7.955156666761849" Properties=species:S:1:pos:R:3:initial_magmoms:R:1:castep_labels:S:1 n_minim_iter=11 pbc="T T T"
P        4.86363989       7.81394038       6.21208985       0.00000000 NULL
P        3.13731610       1.91035160       3.33598469       0.00000000 NULL
P        5.80621122       3.39674415       6.29142165       0.00000000 NULL
P        6.15622849       4.86968404       3.43068602       0.00000000 NULL
P        4.96906115       2.95748755       3.26316182       0.00000000 NULL
P        4.33935464       5.67106987       6.81894721       0.00000000 NULL
P        6.32079988       5.20581094       7.73498609       0.00000000 NULL
P        2.56561836       6.57078948       4.43561275       0.00000000 NULL
P        5.97861108       5.50287147       5.42402680       0.00000000 NULL
P        7.16059338       8.22298085       6.12068566       0.00000000 NULL
P        6.17896666       6.94636392       2.70201464       0.00000000 NULL
P        5.50504510       3.08631344       1.17814531       0.00000000 NULL
12
Lattice="5.072417815936359 0.2642787139709267 0.05709053051193015 0.9330257597061117 7.091478986950513 -0.6235645108400614 2.2360427106946386 1.1491921103434475 7.95733397220954" Properties=species:S:1:pos:R:3:initial_magmoms:R:1:castep_labels:S:1 n_minim_iter=12 pbc="T T T"
P        4.88910567       7.79952990       6.19768285       0.00000000 NULL
P        3.14398986       1.90540766       3.33675183       0.00000000 NULL
P        5.81830577       3.39388719       6.29091811       0.00000000 NULL
P        6.16929399       4.87067180       3.41850361       0.00000000 NULL
P        4.97603242       2.95750780       3.26021710       0.00000000 NULL
P        4.35624787       5.65684530       6.81077505       0.00000000 NULL
P        6.33710041       5.19094694       7.73259340       0.00000000 NULL
P        2.58830652       6.55808901       4.41891208       0.00000000 NULL
P        5.99695172       5.49737665       5.41493885       0.00000000 NULL
P        7.18348643       8.21380038       6.10954272       0.00000000 NULL
P        6.19712985       6.94711304       2.69241544       0.00000000 NULL
P        5.51579757       3.09256162       1.17568586       0.00000000 NULL
12
Lattice="5.064096804065844 0.3077805106670594 0.06575048497533786 0.988953328487405 7.070260953624291 -0.6716354622461289 2.2596054456066526 1.104858222578017 7.967240230832156" Properties=species:S:1:pos:R:3:initial_magmoms:R:1:castep_labels:S:1 n_minim_iter=13 pbc="T T T"
P        4.95985135       7.76323866       6.16290419       0.00000000 NULL
P        3.16193352       1.89386872       3.34069984       0.00000000 NULL
P        5.85026734       3.38962612       6.29273969       0.00000000 NULL
P        6.20434203       4.87657250       3.38802508       0.00000000 NULL
P        4.99423367       2.96051931       3.25409829       0.00000000 NULL
P        4.40319209       5.62063317       6.79289179       0.00000000 NULL
P        6.38104365       5.15478244       7.73060136       0.00000000 NULL
P        2.65207409       6.52479036       4.37667881       0.00000000 NULL
P        6.04708511       5.48624601       5.39376662       0.00000000 NULL
P        7.24670640       8.19294476       6.08387511       0.00000000 NULL
P        6.24713061       6.95242551       2.66830728       0.00000000 NULL
P        5.54388568       3.11250067       1.16998450       0.00000000 NULL
12
Lattice="5.053088706004409 0.3608849102538248 0.07354048160164697 1.0571279014842738 7.048558074469903 -0.7177283820232467 2.283907246118117 1.0663901194881673 7.986960217696067" Properties=species:S:1:pos:R:3:initial_magmoms:R:1:castep_labels:S:1 n_minim_iter=14 pbc="T T T"
P        5.04150954       7.73536516       6.13780285       0.00000000 NULL
P        3.18203768       1.88824788       3.34911426       0.00000000 NULL
P        5.88461085       3.39672101       6.30203322       0.00000000 NULL
P        6.24391858       4.89322559       3.36312325       0.00000000 NULL
P        5.01453964       2.97336230       3.25202846       0.00000000 NULL
P        4.45792775       5.59151892       6.78511998       0.00000000 NULL
P        6.43010255       5.13140262       7.73928059       0.00000000 NULL
P        2.72642835       6.49472257       4.34104871       0.00000000 NULL
P        6.10413814       5.48706258       5.38037935       0.00000000 NULL
P        7.32062701       8.18510210       6.06859137       0.00000000 NULL
P        6.30561587       6.96896790       2.64809480       0.00000000 NULL
P        5.57360745       3.14268631       1.16627543       0.00000000 NULL
12
Lattice="5.031265779045505 0.4305226614245102 0.08381652152058218 1.1456722128963674 7.017710490429793 -0.7665717894619472 2.3128564432565506 1.0284690349384382 8.007180571687124" Properties=species:S:1:pos:R:3:initial_magmoms:R:1:castep_labels:S:1 n_minim_iter=15 pbc="T T T"
P        5.14176232       7.70621553       6.11128584       0.00000000 NULL
P        3.20429410       1.88748164       3.35854521       0.00000000 NULL
P        5.92108170       3.41321460       6.31217170       0.00000000 NULL
P        6.28717253       4.91940688       3.34002592       0.00000000 NULL
P        5.03511454       2.99624096       3.25079525       0.00000000 NULL
P        4.52624892       5.56122164       6.77730405       0.00000000 NULL
P        6.48712281       5.11551942       7.74904309       0.00000000 NULL
P        2.81959391       6.45823525       4.30267698       0.00000000 NULL
P        6.17018349       5.49585445       5.36734121       0.00000000 NULL
P        7.40963291       8.18294702       6.05387271       0.00000000 NULL
P        6.37428894       6.99304877       2.62676431       0.00000000 NULL
P        5.60082634       3.18548450       1.16461053       0.00000000 NULL
12
Lattice="5.017804198862362 0.5170886165122468 0.09322785492613977 1.2573233191378705 7.005146668060542 -0.8199336860683708 2.3494324760156955 0.9964988380057134 8.049569686570013" Properties=species:S:1:pos:R:3:initial_magmoms:R:1:castep_labels:S:1 n_minim_iter=16 pbc="T T T"
P        5.27378775       7.70659963       6.09854978       0.00000000 NULL
P        3.23794141       1.89895463       3.37677690       0.00000000 NULL
P        5.97679945       3.45259748       6.33756675       0.00000000 NULL
P        6.35434196       4.97353827       3.32456985       0.00000000 NULL
P        5.07229514       3.04057744       3.25674520       0.00000000 NULL
P        4.61843691       5.55164617       6.78720202       0.00000000 NULL
P        6.57021286       5.12792622       7.77867868       0.00000000 NULL
P        2.93744684       6.44132202       4.27278943       0.00000000 NULL
P        6.26363307       5.53469928       5.36681577       0.00000000 NULL
P        7.53574369       8.21837771       6.05368697       0.00000000 NULL
P        6.47378643       7.05158247       2.60808445       0.00000000 NULL
P        5.64529899       3.25239245       1.16489260       0.00000000 NULL
12
Lattice="4.997041797862579 0.6042545318953922 0.09923514408808012 1.3689135845253657 6.974253153689861 -0.8723702626030421 2.37819330849382 0.9616938654173621 8.070128111693316" Properties=species:S:1:pos:R:3:initial_magmoms:R:1:castep_labels:S:1 n_minim_iter=17 pbc="T T T"
P        5.39631735       7.68727038       6.06627238       0.00000000 NULL
P        3.26657706       1.90637768       3.38451178       0.00000000 NULL
P        6.02075934       3.48462756       6.34234121       0.00000000 NULL
P        6.41065625       5.01617984       3.29744096       0.00000000 NULL
P        5.10048822       3.07881453       3.25029094       0.00000000 NULL
P        4.70056755       5.52573348       6.77774197       0.00000000 NULL
P        6.64025721       5.12853303       7.78425476       0.00000000 NULL
P        3.04926706       6.40698601       4.22882265       0.00000000 NULL
P        6.34681498       5.56211453       5.34870346       0.00000000 NULL
P        7.64922782       8.23315789       6.03365462       0.00000000 NULL
P        6.56393698       7.09365651       2.57753248       0.00000000 NULL
P        5.68040211       3.31261640       1.15987993       0.00000000 NULL
12
Lattice="5.000710322375126 0.6630112210614972 0.10477937419549535 1.4461797676853132 6.985565849632345 -0.9111935492580272 2.406985768261656 0.942088675586929 8.10752106582961" Properties=species:S:1:pos:R:3:initial_magmoms:R:1:castep_labels:S:1 n_minim_iter=18 pbc="T T T"
P        5.49638635       7.70845323       6.06136736       0.00000000 NULL
P        3.29799525       1.91876348       3.40009953       0.00000000 NULL
P        6.07146668       3.51973958       6.36387665       0.00000000 NULL
P        6.46969343       5.06491656       3.28948889       0.00000000 NULL
P        5.13697674       3.11662990       3.25599116       0.00000000 NULL
P        4.77070225       5.53051237       6.79180686       0.00000000 NULL
P        6.71073816       5.15046841       7.81146308       0.00000000 NULL
P        3.13361678       6.41244013       4.20987845       0.00000000 NULL
P        6.42492557       5.60492703       5.35264586       0.00000000 NULL
P        7.75098224       8.27796977       6.03875139       0.00000000 NULL
P        6.64594337       7.15262446       2.56349417       0.00000000 NULL
P        5.72297599       3.36562429       1.16132863       0.00000000 NULL
12
Lattice="4.988639514623841 0.7031938965308709 0.10887656283979179 1.497332385706729 6.967676136622773 -0.9390329762603631 2.4211912251885295 0.9208147150759919 8.10538435416113" Properties=species:S:1:pos:R:3:initial_magmoms:R:1:castep_labels:S:1 n_minim_iter=19 pbc="T T T"
P        5.55302117       7.69241077       6.03292649       0.00000000 NULL
P        3.31223347       1.91910733       3.39909899       0.00000000 NULL
P        6.09071993       3.53001880       6.35558615       0.00000000 NULL
P        6.49289971       5.07993893       3.27006324       0.00000000 NULL
P        5.14777895       3.13089000       3.24732530       0.00000000 NULL
P        4.80690686       5.50903827       6.77630151       0.00000000 NULL
P        6.74179018       5.14310797       7.80201954       0.00000000 NULL
P        3.18495550       6.39027356       4.17756290       0.00000000 NULL
P        6.46331340       5.61335054       5.33465519       0.00000000 NULL
P        7.80123807       8.27631415       6.01853825       0.00000000 NULL
P        6.68548865       7.16749321       2.54193684       0.00000000 NULL
P        5.73685366       3.39040950       1.15842678       0.00000000 NULL
12
Lattice="4.984783843943206 0.7538845451394753 0.11316783518725941 1.5631785594613419 6.972689357630475 -0.9715680562288366 2.4424442455268087 0.9038704870865731 8.126380585456362" Properties=species:S:1:pos:R:3:initial_magmoms:R:1:castep_labels:S:1 n_minim_iter=20 pbc="T T T"
P        5.63339073       7.70714497       6.01910011       0.00000000 NULL
P        3.33642527       1.92888229       3.40821829       0.00000000 NULL
P        6.12630292       3.55957773       6.36401799       0.00000000 NULL
P        6.53459542       5.11937932       3.25708156       0.00000000 NULL
P        5.17151617       3.16186048       3.24712804       0.00000000 NULL
P        4.85980237       5.50778159       6.77991738       0.00000000 NULL
P        6.79322705       5.15900633       7.81506362       0.00000000 NULL
P        3.25383228       6.39107418       4.15319660       0.00000000 NULL
P        6.52390018       5.64883291       5.33046456       0.00000000 NULL
P        7.87859619       8.30994010       6.01518997       0.00000000 NULL
P        6.74808934       7.21457299       2.52518906       0.00000000 NULL
P        5.76610593       3.43364739       1.15880765       0.00000000 NULL
12
Lattice="4.9602927603326155 0.820688191772885 0.12015763019565785 1.647707477493707 6.951420627696727 -1.017075523949492 2.464523151706756 0.8714621660516523 8.116103787108846" Properties=species:S:1:pos:R:3:initial_magmoms:R:1:castep_labels:S:1 n_minim_iter=21 pbc="T T T"
P        5.72498465       7.69308455       5.96551123       0.00000000 NULL
P        3.36005710       1.93196476       3.40508530       0.00000000 NULL
P        6.15401561       3.58302892       6.34345473       0.00000000 NULL
P        6.56677686       5.15074532       3.21995405       0.00000000 NULL
P        5.18382270       3.18924322       3.23008385       0.00000000 NULL
P        4.91359519       5.47607225       6.75077407       0.00000000 NULL
P        6.83916040       5.15337783       7.79487822       0.00000000 NULL
P        3.33704584       6.36336950       4.09270257       0.00000000 NULL
P        6.58620236       5.67323484       5.29678151       0.00000000 NULL
P        7.95557540       8.31776559       5.97918585       0.00000000 NULL
P        6.80927818       7.24870501       2.48644629       0.00000000 NULL
P        5.78523910       3.47704505       1.15520801       0.00000000 NULL
12
Lattice="4.983418677137464 0.8826441885066038 0.1355808444242493 1.7314109188316325 6.996982757083726 -1.0587079888851585 2.516897150064182 0.8571056867039707 8.155345345422633" Properties=species:S:1:pos:R:3:initial_magmoms:R:1:castep_labels:S:1 n_minim_iter=22 pbc="T T T"
P        5.86183421       7.75804270       5.96030663       0.00000000 NULL
P        3.41676516       1.95261766       3.42825440       0.00000000 NULL
P        6.24130248       3.63837655       6.36921215       0.00000000 NULL
P        6.65446082       5.22485533       3.21336324       0.00000000 NULL
P        5.24247583       3.24151799       3.24291499       0.00000000 NULL
P        5.00725672       5.49918714       6.77307242       0.00000000 NULL
P        6.94871635       5.19851981       7.83446739       0.00000000 NULL
P        3.44260210       6.40164241       4.06447438       0.00000000 NULL
P        6.70782757       5.75066825       5.30864013       0.00000000 NULL
P        8.09771869       8.40354193       5.99760999       0.00000000 NULL
P        6.92420434       7.34517572       2.47684174       0.00000000 NULL
P        5.85556675       3.54293045       1.17007126       0.00000000 NULL
12
Lattice="4.951791923786264 0.880737445727842 0.14025394616453304 1.725254805199646 6.949005385881181 -1.0641221081455676 2.510312733166775 0.8377237905304799 8.090086916267134" Properties=species:S:1:pos:R:3:initial_magmoms:R:1:castep_labels:S:1 n_minim_iter=23 pbc="T T T"
P        5.83895585       7.69838814       5.89969462       0.00000000 NULL
P        3.40470366       1.93364801       3.40314741       0.00000000 NULL
P        6.21185838       3.60846734       6.31666389       0.00000000 NULL
P        6.61726547       5.18672168       3.17979595       0.00000000 NULL
P        5.21162556       3.21579127       3.21608197       0.00000000 NULL
P        4.98233115       5.44579388       6.71485188       0.00000000 NULL
P        6.91440825       5.14892736       7.77177278       0.00000000 NULL
P        3.43046527       6.35075225       4.01477788       0.00000000 NULL
P        6.67985233       5.70868023       5.26149261       0.00000000 NULL
P        8.05665899       8.33791552       5.94443644       0.00000000 NULL
P        6.88812533       7.29496414       2.44955503       0.00000000 NULL
P        5.82448402       3.51721418       1.16443399       0.00000000 NULL
12
Lattice="4.962175436105599 0.8899358226814529 0.1448546827277736 1.738486791353615 6.9686362309734236 -1.0716800036548666 2.5243383264023023 0.8369288898832882 8.102682566136902" Properties=species:S:1:pos:R:3:initial_magmoms:R:1:castep_labels:S:1 n_minim_iter=24 pbc="T T T"
P        5.86874675       7.72273079       5.90377920       0.00000000 NULL
P        3.41988356       1.93899791       3.41097501       0.00000000 NULL
P        6.23555133       3.62227126       6.32662131       0.00000000 NULL
P        6.63914333       5.20593282       3.18134125       0.00000000 NULL
P        5.22734442       3.22772781       3.22279823       0.00000000 NULL
P        5.00307570       5.45710063       6.72518265       0.00000000 NULL
P        6.94166740       5.16316314       7.78664404       0.00000000 NULL
P        3.45144123       6.36819659       4.01191494       0.00000000 NULL
P        6.70961628       5.73028184       5.26932191       0.00000000 NULL
P        8.08919249       8.36482315       5.95465436       0.00000000 NULL
P        6.91454554       7.32176313       2.45111024       0.00000000 NULL
P        5.84398280       3.53131303       1.16984282       0.00000000 NULL
12
Lattice="4.961294584311726 0.8948347473236555 0.14886515620758156 1.744791545391773 6.969426144279812 -1.0772472599862561 2.5315059975873018 0.8321546197248886 8.093123693228794" Properties=species:S:1:pos:R:3:initial_magmoms:R:1:castep_labels:S:1 n_minim_iter=25 pbc="T T T"
P        5.88160788       7.72405171       5.89067099       0.00000000 NULL
P        3.42662122       1.93767220       3.40928226       0.00000000 NULL
P        6.24335790       3.62375345       6.31886065       0.00000000 NULL
P        6.64368451       5.20874137       3.17340756       0.00000000 NULL
P        5.22961405       3.22878117       3.22021037       0.00000000 NULL
P        5.00962905       5.45137205       6.71649806       0.00000000 NULL
P        6.95017035       5.16017541       7.77951531       0.00000000 NULL
P        3.46127006       6.36715540       3.99732582       0.00000000 NULL
P        6.72151482       5.73376436       5.26203918       0.00000000 NULL
P        8.09925657       8.36601822       5.94728856       0.00000000 NULL
P        6.92214543       7.32632550       2.44510304       0.00000000 NULL
P        5.84892163       3.53361304       1.17165745       0.00000000 NULL
12
Lattice="4.963199986998874 0.9382739453414951 0.18475533736027688 1.8018215053586677 6.9894315655430175 -1.1252168731862928 2.5995058550744794 0.794587588538482 8.013736389721764" Properties=species:S:1:pos:R:3:initial_magmoms:R:1:castep_labels:S:1 n_minim_iter=26 pbc="T T T"
P        6.00552248       7.75420034       5.78001695       0.00000000 NULL
P        3.49351767       1.92921407       3.39824506       0.00000000 NULL
P        6.32414552       3.64519833       6.25431165       0.00000000 NULL
P        6.69418673       5.24416363       3.10423279       0.00000000 NULL
P        5.25790791       3.24324053       3.20196903       0.00000000 NULL
P        5.07392127       5.41094102       6.64634702       0.00000000 NULL
P        7.03622779       5.14428170       7.72407493       0.00000000 NULL
P        3.55311164       6.37238012       3.87105451       0.00000000 NULL
P        6.83994024       5.77728411       5.20327688       0.00000000 NULL
P        8.20112718       8.39408085       5.88854874       0.00000000 NULL
P        7.00082637       7.38077418       2.39434225       0.00000000 NULL
P        5.90478916       3.55924560       1.18920402       0.00000000 NULL
