12
Lattice="4.878958987671429 -4.4669208539274025e-06 0.0 -2.4394771270904125 2.585061078195247 0.0 0.0 0.0 14.723390555476444" Properties=species:S:1:pos:R:3:initial_magmoms:R:1:castep_labels:S:1:forces:R:3 n_minim_iter=1 energy=-65.863899328357 stress="-0.0018529084240970094 0.0 0.0 0.0 0.0029850738131988325 -0.0 0.0 -0.0 -0.005223232959976324" free_energy=-65.863899328357 pbc="T T T"
P        1.98815888       2.42776445       8.53438673       0.00000000 NULL      -0.01823800       0.04903200      -0.07402000
P        4.42763630       0.15728801       6.18900383       0.00000000 NULL      -0.01823600      -0.04903000       0.07402000
P        1.98815680       0.15729024       8.53438673       0.00000000 NULL      -0.01823600      -0.04903200      -0.07402000
P       -0.45132061       2.42776669       6.18900383       0.00000000 NULL      -0.01823800       0.04903000       0.07402000
P       -2.95629938       2.75167381      11.10626208       0.00000000 NULL       0.03362400      -0.00940000       0.04676200
P       -0.51682255      -0.16661230       3.61712848       0.00000000 NULL       0.03362300       0.00940400      -0.04676200
P        1.92265694      -0.16661453      11.10626208       0.00000000 NULL       0.03362300       0.00940000       0.04676200
P       -0.51681988       2.75167158       3.61712848       0.00000000 NULL       0.03362400      -0.00940400      -0.04676200
P        1.94265148       0.15960841       1.21313804       0.00000000 NULL      -0.01538500       0.07586000       0.15398100
P       -0.49682594       2.42544860      13.51025251       0.00000000 NULL      -0.01538700      -0.07586200      -0.15398200
P        1.94265356       2.42544637       1.21313804       0.00000000 NULL      -0.01538700      -0.07586000       0.15398100
P        4.38213098       0.15960618      13.51025251       0.00000000 NULL      -0.01538500       0.07586300      -0.15398100
12
Lattice="4.886703255750776 -4.474011102621671e-06 0.0 -2.443349267169665 2.578464398958956 0.0 0.0 0.0 14.789364620131101" Properties=species:S:1:pos:R:3:initial_magmoms:R:1:castep_labels:S:1:forces:R:3 n_minim_iter=2 energy=-65.867654830917 stress="-0.0003461254291245094 -0.0 0.0 -0.0 -0.0006165862295566841 -0.0 0.0 -0.0 0.0004662765664593584" free_energy=-65.867654830917 pbc="T T T"
P        1.99123044       2.42179458       8.57228575       0.00000000 NULL      -0.01877100       0.07632500      -0.10788700
P        4.43457999       0.15666119       6.21707887       0.00000000 NULL      -0.01876900      -0.07632200       0.10788700
P        1.99122837       0.15666342       8.57228575       0.00000000 NULL      -0.01876900      -0.07632500      -0.10788700
P       -0.45212119       2.42179682       6.21707887       0.00000000 NULL      -0.01877100       0.07632200       0.10788700
P       -2.96083663       2.74460874      11.15624466       0.00000000 NULL       0.03447100      -0.04278400       0.07575600
P       -0.51748766      -0.16614390       3.63311996       0.00000000 NULL       0.03447000       0.04278700      -0.07575600
P        1.92586397      -0.16614614      11.15624466       0.00000000 NULL       0.03447000       0.04278400       0.07575600
P       -0.51748500       2.74460650       3.63311996       0.00000000 NULL       0.03447100      -0.04278800      -0.07575600
P        1.94566398       0.15954989       1.21928694       0.00000000 NULL      -0.01569900       0.03524600       0.15138700
P       -0.49768558       2.41891044      13.57007768       0.00000000 NULL      -0.01570100      -0.03524900      -0.15138700
P        1.94566605       2.41890820       1.21928694       0.00000000 NULL      -0.01570100      -0.03524600       0.15138700
P        4.38901561       0.15954766      13.57007768       0.00000000 NULL      -0.01569900       0.03524900      -0.15138700
12
Lattice="4.912726928362251 -4.497837022489297e-06 0.0 -2.456361097957504 2.5844912921625487 0.0 0.0 0.0 14.813003935620234" Properties=species:S:1:pos:R:3:initial_magmoms:R:1:castep_labels:S:1:forces:R:3 n_minim_iter=3 energy=-65.873266096901 stress="0.0075987191497145865 0.0 0.0 0.0 0.006028634789033685 0.0 0.0 0.0 0.0013788350059443896" free_energy=-65.873266096901 pbc="T T T"
P        2.00078020       2.43154301       8.58010607       0.00000000 NULL      -0.01738700      -0.00379800      -0.12247700
P        4.45714158       0.15293961       6.23289786       0.00000000 NULL      -0.01738500       0.00380100       0.12247700
P        2.00077811       0.15294186       8.58010607       0.00000000 NULL      -0.01738500       0.00379800      -0.12247700
P       -0.45558327       2.43154526       6.23289786       0.00000000 NULL      -0.01738700      -0.00380100       0.12247700
P       -2.97466720       2.74884284      11.17817472       0.00000000 NULL       0.03184400       0.01520400       0.09981000
P       -0.51830640      -0.16435111       3.63482921       0.00000000 NULL       0.03184200      -0.01520000      -0.09980900
P        1.93805706      -0.16435336      11.17817472       0.00000000 NULL       0.03184200      -0.01520400       0.09981000
P       -0.51830374       2.74884059       3.63482921       0.00000000 NULL       0.03184400       0.01520000      -0.09980900
P        1.95514272       0.16213547       1.22979679       0.00000000 NULL      -0.01445600       0.02615200       0.15655000
P       -0.50121868       2.42235174      13.58320714       0.00000000 NULL      -0.01445800      -0.02615600      -0.15655000
P        1.95514479       2.42234949       1.22979679       0.00000000 NULL      -0.01445800      -0.02615200       0.15655000
P        4.41150618       0.16213322      13.58320714       0.00000000 NULL      -0.01445600       0.02615600      -0.15655000
12
Lattice="4.922756956411981 -4.507019994019356e-06 0.0 -2.46137612593304 2.5692537871356524 0.0 0.0 0.0 14.85038088187349" Properties=species:S:1:pos:R:3:initial_magmoms:R:1:castep_labels:S:1:forces:R:3 n_minim_iter=4 energy=-65.90627370955 stress="0.007254372212306712 -5.32411450024345e-08 0.0 -5.32411450024345e-08 -0.0034207968075514192 -0.0 0.0 -0.0 -0.009187877634215124" free_energy=-65.90627370955 pbc="T T T"
P        2.00010172       2.43451460       8.57478536       0.00000000 NULL      -0.00853600      -0.13939200      -0.07236400
P        4.46147809       0.13473051       6.27559552       0.00000000 NULL      -0.00853600       0.13939000       0.07236400
P        2.00009961       0.13473277       8.57478536       0.00000000 NULL      -0.00853600       0.13939200      -0.07236400
P       -0.46127676       2.43451685       6.27559552       0.00000000 NULL      -0.00853600      -0.13939000       0.07236400
P       -2.97199055       2.72357879      11.22538483       0.00000000 NULL       0.01410500       0.03639100       0.11142000
P       -0.51061471      -0.15432458       3.62499606       0.00000000 NULL       0.01410500      -0.03639400      -0.11142000
P        1.95076377      -0.15432683      11.22538483       0.00000000 NULL       0.01410500      -0.03639100       0.11142000
P       -0.51061207       2.72357654       3.62499606       0.00000000 NULL       0.01410500       0.03639400      -0.11142000
P        1.95514801       0.17091921       1.27181187       0.00000000 NULL      -0.00556900      -0.23161500       0.11031900
P       -0.50622843       2.39833049      13.57856901       0.00000000 NULL      -0.00556900       0.23161900      -0.11031800
P        1.95515005       2.39832824       1.27181187       0.00000000 NULL      -0.00556900       0.23161500       0.11031900
P        4.41652649       0.17091695      13.57856901       0.00000000 NULL      -0.00556900      -0.23161900      -0.11031800
12
Lattice="4.887913801990109 -4.47511941574186e-06 0.0 -2.4439545388697144 2.580014965468226 0.0 0.0 0.0 15.025023802882583" Properties=species:S:1:pos:R:3:initial_magmoms:R:1:castep_labels:S:1:forces:R:3 n_minim_iter=5 energy=-65.931613858835 stress="-0.005630656316130297 5.2776352914829996e-08 0.0 5.2776352914829996e-08 0.006543212234380623 -0.0 0.0 -0.0 -0.010059120089213683" free_energy=-65.931613858835 pbc="T T T"
P        1.98119098       2.46110133       8.64791049       0.00000000 NULL      -0.00400400      -0.31448600      -0.01466800
P        4.42514574       0.11890503       6.37711331       0.00000000 NULL      -0.00400400       0.31448700       0.01466800
P        1.98118884       0.11890726       8.64791049       0.00000000 NULL      -0.00400400       0.31448600      -0.01466800
P       -0.46276592       2.46110357       6.37711331       0.00000000 NULL      -0.00400300      -0.31448700       0.01466800
P       -2.94223471       2.72601837      11.37740689       0.00000000 NULL      -0.00473500       0.17495800       0.11810500
P       -0.49828044      -0.14600300       3.64761692       0.00000000 NULL      -0.00473400      -0.17495600      -0.11810500
P        1.94567646      -0.14600523      11.37740689       0.00000000 NULL      -0.00473400      -0.17495800       0.11810500
P       -0.49827781       2.72601613       3.64761692       0.00000000 NULL      -0.00473500       0.17495600      -0.11810500
P        1.93734361       0.17937897       1.32660846       0.00000000 NULL       0.00873800      -0.33082600       0.10877200
P       -0.50661125       2.40063194      13.69841534       0.00000000 NULL       0.00873900       0.33082200      -0.10877200
P        1.93734565       2.40062971       1.32660846       0.00000000 NULL       0.00873900       0.33082600       0.10877200
P        4.38130052       0.17937673      13.69841534       0.00000000 NULL       0.00873800      -0.33082200      -0.10877200
12
Lattice="4.8992791425283135 -4.485524929872396e-06 0.0 -2.4496372139900284 2.574716272950067 0.0 0.0 0.0 15.12562414393657" Properties=species:S:1:pos:R:3:initial_magmoms:R:1:castep_labels:S:1:forces:R:3 n_minim_iter=6 energy=-65.955455002876 stress="-0.005269282162674021 0.0 -0.0 0.0 0.00588144699412943 0.0 -0.0 0.0 -0.025157039535954214" free_energy=-65.955455002876 pbc="T T T"
P        1.98126310       2.46211408       8.67742394       0.00000000 NULL      -0.00183500      -0.33842300       0.18503000
P        4.43090052       0.11259358       6.44820020       0.00000000 NULL      -0.00183300       0.33842400      -0.18503000
P        1.98126095       0.11259582       8.67742394       0.00000000 NULL      -0.00183300       0.33842300       0.18503000
P       -0.46837647       2.46211632       6.44820020       0.00000000 NULL      -0.00183500      -0.33842400      -0.18503000
P       -2.94116194       2.71613344      11.47811366       0.00000000 NULL      -0.02321300       0.12670900      -0.06551500
P       -0.49152499      -0.14141677       3.64751049       0.00000000 NULL      -0.02321400      -0.12670600       0.06551600
P        1.95811458      -0.14141901      11.47811366       0.00000000 NULL      -0.02321500      -0.12670900      -0.06551500
P       -0.49152237       2.71613119       3.64751049       0.00000000 NULL      -0.02321300       0.12670600       0.06551600
P        1.93846891       0.17284686       1.37594132       0.00000000 NULL       0.02504800      -0.31185000      -0.07495600
P       -0.51116862       2.40186535      13.74968283       0.00000000 NULL       0.02504700       0.31184600       0.07495600
P        1.93847095       2.40186311       1.37594132       0.00000000 NULL       0.02504700       0.31185000      -0.07495600
P        4.38810848       0.17284462      13.74968283       0.00000000 NULL       0.02504800      -0.31184600       0.07495500
12
Lattice="4.905486272037661 -4.4912078545091195e-06 0.0 -2.4527408075167667 2.5432902158812083 0.0 0.0 0.0 15.304639106101174" Properties=species:S:1:pos:R:3:initial_magmoms:R:1:castep_labels:S:1:forces:R:3 n_minim_iter=7 energy=-65.987485606676 stress="-0.007259233355755985 0.0 -0.0 0.0 0.004473460854263496 0.0 -0.0 0.0 -0.017642352975781483" free_energy=-65.987485606676 pbc="T T T"
P        1.97255807       2.43966650       8.76917194       0.00000000 NULL       0.00110200      -0.26908200       0.14324500
P        4.42529907       0.10361511       6.53546717       0.00000000 NULL       0.00110100       0.26908300      -0.14324500
P        1.97255593       0.10361736       8.76917194       0.00000000 NULL       0.00110100       0.26908200       0.14324500
P       -0.48018507       2.43966875       6.53546717       0.00000000 NULL       0.00110100      -0.26908300      -0.14324500
P       -2.93371847       2.64828655      11.62346873       0.00000000 NULL      -0.04415900       0.23982100      -0.01919800
P       -0.48097785      -0.10499595       3.68117037       0.00000000 NULL      -0.04415900      -0.23981900       0.01919900
P        1.97176528      -0.10499820      11.62346873       0.00000000 NULL      -0.04415900      -0.23982100      -0.01919800
P       -0.48097533       2.64828431       3.68117037       0.00000000 NULL      -0.04415900       0.23981900       0.01919900
P        1.94097020       0.13760819       1.41466809       0.00000000 NULL       0.04305700      -0.03165300      -0.03579800
P       -0.51177086       2.40567797      13.88997101       0.00000000 NULL       0.04305800       0.03165000       0.03579700
P        1.94097228       2.40567573       1.41466809       0.00000000 NULL       0.04305800       0.03165300      -0.03579800
P        4.39371334       0.13760594      13.88997101       0.00000000 NULL       0.04305800      -0.03165000       0.03579700
12
Lattice="4.917020262879959 -4.501767776073171e-06 0.0 -2.458507791513433 2.55576852176554 0.0 0.0 0.0 15.549842199381956" Properties=species:S:1:pos:R:3:initial_magmoms:R:1:castep_labels:S:1:forces:R:3 n_minim_iter=8 energy=-66.026248338586 stress="-0.0006258090169285901 -0.0 0.0 -0.0 0.002557787740953863 0.0 0.0 0.0 -0.0024449998536932027" free_energy=-66.026248338586 pbc="T T T"
P        1.95668471       2.41804196       8.91556336       0.00000000 NULL       0.00413200      -0.02855500      -0.21397400
P        4.41519275       0.13771797       6.63427884       0.00000000 NULL       0.00413000       0.02855300       0.21397400
P        1.95668262       0.13772023       8.91556336       0.00000000 NULL       0.00413000       0.02855500      -0.21397400
P       -0.50182542       2.41804421       6.63427884       0.00000000 NULL       0.00413200      -0.02855300       0.21397400
P       -2.94189327       2.68504026      11.84276517       0.00000000 NULL      -0.01631600       0.06548300      -0.20770600
P       -0.48338572      -0.12927136       3.70707703       0.00000000 NULL      -0.01631500      -0.06548600       0.20770500
P        1.97512441      -0.12927361      11.84276517       0.00000000 NULL      -0.01631500      -0.06548300      -0.20770600
P       -0.48338314       2.68503801       3.70707703       0.00000000 NULL      -0.01631600       0.06548600       0.20770500
P        1.96732220       0.14562843       1.46080652       0.00000000 NULL       0.01218400      -0.11043300      -0.20566600
P       -0.49118586       2.41013598      14.08903568       0.00000000 NULL       0.01218500       0.11043700       0.20566700
P        1.96732427       2.41013373       1.46080652       0.00000000 NULL       0.01218500       0.11043300      -0.20566600
P        4.42583233       0.14562618      14.08903568       0.00000000 NULL       0.01218400      -0.11043700       0.20566700
12
Lattice="4.922847121304743 -4.507102544305959e-06 0.0 -2.46142121842765 2.558278688399029 0.0 0.0 0.0 15.609113680296025" Properties=species:S:1:pos:R:3:initial_magmoms:R:1:castep_labels:S:1:forces:R:3 n_minim_iter=9 energy=-66.040828553793 stress="0.002103150829933686 -5.086955374259109e-08 0.0 -5.086955374259109e-08 0.0005866276937595605 -0.0 0.0 -0.0 0.0033859283666606054" free_energy=-66.040828553793 pbc="T T T"
P        1.95468058       2.41313729       8.93265574       0.00000000 NULL       0.00483000       0.05222700      -0.04930500
P        4.41610206       0.14513281       6.67645794       0.00000000 NULL       0.00483000      -0.05223000       0.04930500
P        1.95467850       0.14513506       8.93265574       0.00000000 NULL       0.00483000      -0.05222700      -0.04930500
P       -0.50674298       2.41313955       6.67645794       0.00000000 NULL       0.00483000       0.05223000       0.04930500
P       -2.94692219       2.69926848      11.88363935       0.00000000 NULL      -0.00630100      -0.02972200      -0.07146600
P       -0.48550123      -0.14098940       3.72547433       0.00000000 NULL      -0.00630100       0.02971900       0.07146600
P        1.97592233      -0.14099166      11.88363935       0.00000000 NULL      -0.00630100       0.02972200      -0.07146600
P       -0.48549863       2.69926622       3.72547433       0.00000000 NULL      -0.00630100      -0.02971900       0.07146600
P        1.97551911       0.14576945       1.46007769       0.00000000 NULL       0.00147100      -0.08495700      -0.06610500
P       -0.48590238       2.41250512      14.14903599       0.00000000 NULL       0.00147100       0.08496100       0.06610500
P        1.97552118       2.41250287       1.46007769       0.00000000 NULL       0.00147100       0.08495700      -0.06610500
P        4.43694267       0.14576720      14.14903599       0.00000000 NULL       0.00147100      -0.08496100       0.06610500
12
Lattice="4.919995619315081 -4.504491857529052e-06 0.0 -2.459995469023368 2.5565414218763167 0.0 0.0 0.0 15.573749730322794" Properties=species:S:1:pos:R:3:initial_magmoms:R:1:castep_labels:S:1:forces:R:3 n_minim_iter=10 energy=-66.044006465486 stress="0.0011323243220885068 -0.0 -0.0 -0.0 0.0008369531247753063 0.0 -0.0 0.0 0.0035408298681024707" free_energy=-66.044006465486 pbc="T T T"
P        1.95576773       2.41818029       8.91715694       0.00000000 NULL       0.00327500      -0.02135600      -0.07517000
P        4.41576346       0.13835254       6.65659279       0.00000000 NULL       0.00327700       0.02135400       0.07517000
P        1.95576565       0.13835479       8.91715694       0.00000000 NULL       0.00327700       0.02135600      -0.07517000
P       -0.50423008       2.41818255       6.65659279       0.00000000 NULL       0.00327500      -0.02135400       0.07517000
P       -2.94860006       2.70228882      11.84986986       0.00000000 NULL       0.00213100      -0.08579600      -0.03696900
P       -0.48860486      -0.14574701       3.72387987       0.00000000 NULL       0.00213000       0.08579300       0.03696800
P        1.97139295      -0.14574926      11.84986986       0.00000000 NULL       0.00213000       0.08579600      -0.03696900
P       -0.48860225       2.70228657       3.72387987       0.00000000 NULL       0.00213100      -0.08579300       0.03696800
P        1.97554031       0.14041970       1.45374460       0.00000000 NULL      -0.00540600      -0.02011500      -0.03664900
P       -0.48445542       2.41611760      14.12000513       0.00000000 NULL      -0.00540800       0.02011800       0.03665000
P        1.97554239       2.41611535       1.45374460       0.00000000 NULL      -0.00540800       0.02011500      -0.03664900
P        4.43553812       0.14041745      14.12000513       0.00000000 NULL      -0.00540700      -0.02011800       0.03665000
12
Lattice="4.919314117369197 -4.503867909825209e-06 0.0 -2.4596547199322676 2.5544859944041756 0.0 0.0 0.0 15.512822314849727" Properties=species:S:1:pos:R:3:initial_magmoms:R:1:castep_labels:S:1:forces:R:3 n_minim_iter=11 energy=-66.047447333419 stress="0.000623631381669706 -0.0 0.0 -0.0 0.0002732138470653002 -0.0 0.0 -0.0 0.001609632762526284" free_energy=-66.047447333419 pbc="T T T"
P        1.95969061       2.41319721       8.88493809       0.00000000 NULL       0.00105700       0.01934400      -0.04777100
P        4.41934559       0.14128019       6.62788422       0.00000000 NULL       0.00105500      -0.01934700       0.04777100
P        1.95968853       0.14128244       8.88493809       0.00000000 NULL       0.00105400      -0.01934400      -0.04777100
P       -0.49996645       2.41319946       6.62788422       0.00000000 NULL       0.00105700       0.01934700       0.04777100
P       -2.95275258       2.69294703      11.79434534       0.00000000 NULL       0.01176700       0.00130800       0.00726900
P       -0.49309812      -0.13846064       3.71847698       0.00000000 NULL       0.01176900      -0.00131100      -0.00726900
P        1.96655894      -0.13846289      11.79434534       0.00000000 NULL       0.01176900      -0.00130800       0.00726900
P       -0.49309552       2.69294478       3.71847698       0.00000000 NULL       0.01176700       0.00131100      -0.00726900
P        1.97563368       0.13892943       1.44361289       0.00000000 NULL      -0.01282400      -0.00165400       0.00159300
P       -0.48402129       2.41555244      14.06920943       0.00000000 NULL      -0.01282300       0.00165700      -0.00159200
P        1.97563577       2.41555019       1.44361289       0.00000000 NULL      -0.01282300       0.00165400       0.00159300
P        4.43529074       0.13892718      14.06920943       0.00000000 NULL      -0.01282400      -0.00165700      -0.00159200
12
Lattice="4.919538705272145 -4.504073530818412e-06 0.0 -2.459767015568208 2.552646149311708 0.0 0.0 0.0 15.514347706113414" Properties=species:S:1:pos:R:3:initial_magmoms:R:1:castep_labels:S:1:forces:R:3 n_minim_iter=12 energy=-66.048089753391 stress="0.00041672968612420553 -0.0 0.0 -0.0 -2.80249302406474e-05 0.0 0.0 0.0 0.00052251609862599" free_energy=-66.048089753391 pbc="T T T"
P        1.96144444       2.41438074       8.88282168       0.00000000 NULL       0.00178000      -0.00590000      -0.00797800
P        4.42121171       0.13825681       6.63152602       0.00000000 NULL       0.00178000       0.00589700       0.00797800
P        1.96144236       0.13825906       8.88282168       0.00000000 NULL       0.00178000       0.00590000      -0.00797800
P       -0.49832491       2.41438299       6.63152602       0.00000000 NULL       0.00178000      -0.00589700       0.00797800
P       -2.94939442       2.68968160      11.79753212       0.00000000 NULL      -0.00152800       0.00625800       0.00551200
P       -0.48962766      -0.13703505       3.71681559       0.00000000 NULL      -0.00152800      -0.00626000      -0.00551300
P        1.97014169      -0.13703731      11.79753212       0.00000000 NULL      -0.00152800      -0.00625800       0.00551200
P       -0.48962507       2.68967935       3.71681559       0.00000000 NULL      -0.00152800       0.00626000      -0.00551300
P        1.97056663       0.13817442       1.44224679       0.00000000 NULL      -0.00025200      -0.00393100       0.00420500
P       -0.48920064       2.41446762      14.07210092       0.00000000 NULL      -0.00025200       0.00393400      -0.00420400
P        1.97056871       2.41446537       1.44224679       0.00000000 NULL      -0.00025200       0.00393100       0.00420500
P        4.43033598       0.13817217      14.07210092       0.00000000 NULL      -0.00025300      -0.00393400      -0.00420400
12
Lattice="4.917951983296391 -4.502620810779894e-06 0.0 -2.458973653530919 2.5537923608236786 0.0 0.0 0.0 15.507487508412032" Properties=species:S:1:pos:R:3:initial_magmoms:R:1:castep_labels:S:1:forces:R:3 n_minim_iter=13 energy=-66.048139379133 stress="-5.7043113574583294e-05 -0.0 0.0 -0.0 7.357586116325641e-05 0.0 0.0 0.0 -0.0002820322438030477" free_energy=-66.048139379133 pbc="T T T"
P        1.96272052       2.41433903       8.87843854       0.00000000 NULL       0.00122300       0.00085000       0.00462400
P        4.42169442       0.13944473       6.62904897       0.00000000 NULL       0.00122000      -0.00085300      -0.00462400
P        1.96271843       0.13944698       8.87843854       0.00000000 NULL       0.00122000      -0.00085100       0.00462400
P       -0.49625548       2.41434128       6.62904897       0.00000000 NULL       0.00122300       0.00085300      -0.00462400
P       -2.94928451       2.69213244      11.79121178       0.00000000 NULL      -0.00118200      -0.00183600       0.00041200
P       -0.49031111      -0.13833968       3.71627573       0.00000000 NULL      -0.00118100       0.00183300      -0.00041300
P        1.96866488      -0.13834193      11.79121178       0.00000000 NULL      -0.00118100       0.00183600       0.00041200
P       -0.49030852       2.69213019       3.71627573       0.00000000 NULL      -0.00118200      -0.00183300      -0.00041300
P        1.96886349       0.13829684       1.44255063       0.00000000 NULL      -0.00004100       0.00099800      -0.00357200
P       -0.49011042       2.41549142      14.06493688       0.00000000 NULL      -0.00003900      -0.00099500       0.00357300
P        1.96886557       2.41548917       1.44255063       0.00000000 NULL      -0.00003900      -0.00099800      -0.00357200
P        4.42783948       0.13829459      14.06493688       0.00000000 NULL      -0.00004100       0.00099500       0.00357300
