56
Lattice="5.167655051413591 0.0 0.0 0.0 12.683834483604778 0.0 0.0 0.0 22.770042634123534" Properties=species:S:1:pos:R:3:initial_magmoms:R:1:castep_labels:S:1:forces:R:3 n_minim_iter=15 energy=-298.71744517631 stress="-4.000059201321504e-06 -0.0 -0.0 -0.0 -2.358493867445845e-06 -0.0 -0.0 -0.0 -3.075422401016031e-06" free_energy=-298.71744517631 pbc="T T T"
P        3.35003604      -0.06246607       7.15026951       0.00000000 NULL       0.00357600      -0.00232900      -0.00044300
P        3.35003604      12.74630056      15.61977313       0.00000000 NULL       0.00357600       0.00232900       0.00044200
P        0.76620851      12.74630056       7.15026951       0.00000000 NULL       0.00357600       0.00232900      -0.00044300
P        0.76620851      -0.06246607      15.61977313       0.00000000 NULL       0.00357600      -0.00232900       0.00044200
P        2.19340249      10.07411625       9.38847283       0.00000000 NULL      -0.00010800       0.00379300       0.00146300
P        2.19340249       2.60971824      13.38156981       0.00000000 NULL      -0.00010800      -0.00379300      -0.00146300
P        4.77723002       2.60971824       9.38847283       0.00000000 NULL      -0.00010900      -0.00379300       0.00146300
P        4.77723002      10.07411625      13.38156981       0.00000000 NULL      -0.00010900       0.00379300      -0.00146300
P        3.34631677       0.07484463      17.82194303       0.00000000 NULL      -0.00018300       0.00655100       0.00324400
P        3.34631677      12.60898985       4.94809960       0.00000000 NULL      -0.00018300      -0.00655100      -0.00324400
P        0.76248925      12.60898985      17.82194303       0.00000000 NULL      -0.00018300      -0.00655100       0.00324400
P        0.76248925       0.07484463       4.94809960       0.00000000 NULL      -0.00018300       0.00655100      -0.00324400
P        0.14250118      12.54049359      10.27080345       0.00000000 NULL      -0.00123200       0.00554000      -0.00534700
P        0.14250118       0.14334089      12.49923918       0.00000000 NULL      -0.00123200      -0.00554000       0.00534700
P        2.72632871       0.14334089      10.27080345       0.00000000 NULL      -0.00123200      -0.00554000      -0.00534700
P        2.72632871      12.54049359      12.49923918       0.00000000 NULL      -0.00123200       0.00554000       0.00534700
P        3.97605065       4.70354060      18.01102710       0.00000000 NULL       0.00201700      -0.00450200       0.00119000
P        3.97605065       7.98029388       4.75901553       0.00000000 NULL       0.00201700       0.00450200      -0.00119000
P        1.39222313       7.98029388      18.01102710       0.00000000 NULL       0.00201700       0.00450200       0.00119000
P        1.39222313       4.70354060       4.75901553       0.00000000 NULL       0.00201700      -0.00450300      -0.00119000
P        4.15846376       4.93770680      14.35986570       0.00000000 NULL       0.00181200      -0.00550500       0.00039300
P        4.15846376       7.74612768       8.41017693       0.00000000 NULL       0.00181200       0.00550500      -0.00039300
P        1.57463623       7.74612768      14.35986570       0.00000000 NULL       0.00181200       0.00550500       0.00039300
P        1.57463623       4.93770680       8.41017693       0.00000000 NULL       0.00181200      -0.00550500      -0.00039300
P        4.26195108       7.95825337      17.98283619       0.00000000 NULL      -0.00426500      -0.00541900       0.00141400
P        4.26195108       4.72558111       4.78720644       0.00000000 NULL      -0.00426500       0.00541800      -0.00141400
P        1.67812356       4.72558111      17.98283619       0.00000000 NULL      -0.00426500       0.00541900       0.00141400
P        1.67812356       7.95825337       4.78720644       0.00000000 NULL      -0.00426500      -0.00541900      -0.00141400
P        1.45220465       9.81379864       7.27840177       0.00000000 NULL      -0.00121800      -0.00249000      -0.00232200
P        1.45220465       2.87003584      15.49164087       0.00000000 NULL      -0.00121800       0.00249000       0.00232200
P        4.03603218       2.87003584       7.27840177       0.00000000 NULL      -0.00121800       0.00249000      -0.00232200
P        4.03603218       9.81379864      15.49164087       0.00000000 NULL      -0.00121800      -0.00249000       0.00232200
P        3.47193812      10.57788918       6.14636344       0.00000000 NULL       0.00131800       0.00579800      -0.00015500
P        3.47193812       2.10594530      16.62367919       0.00000000 NULL       0.00131800      -0.00579700       0.00015500
P        0.88811059       2.10594530       6.14636344       0.00000000 NULL       0.00131800      -0.00579700      -0.00015500
P        0.88811059      10.57788918      16.62367919       0.00000000 NULL       0.00131800       0.00579700       0.00015500
P        4.53608930       7.97685456      14.21039185       0.00000000 NULL      -0.00206600      -0.00054800      -0.00397200
P        4.53608930       4.70697993       8.55965079       0.00000000 NULL      -0.00206600       0.00054800       0.00397200
P        1.95226177       4.70697993      14.21039185       0.00000000 NULL      -0.00206600       0.00054800      -0.00397200
P        1.95226177       7.97685456       8.55965079       0.00000000 NULL      -0.00206600      -0.00054800       0.00397200
P        1.93022843       2.74083319       8.23962155       0.00000000 NULL       0.00276000      -0.00843900      -0.00296900
P        1.93022843       9.94300129      14.53042109       0.00000000 NULL       0.00276000       0.00843900       0.00296800
P        4.51405596       9.94300129       8.23962155       0.00000000 NULL       0.00276000       0.00843900      -0.00296900
P        4.51405596       2.74083319      14.53042109       0.00000000 NULL       0.00276000      -0.00843900       0.00296900
P        5.31865577      10.30583114      10.35732070       0.00000000 NULL       0.00526900      -0.00289300      -0.00377200
P        5.31865577       2.37800334      12.41272193       0.00000000 NULL       0.00526900       0.00289300       0.00377200
P        2.73482824       2.37800334      10.35732070       0.00000000 NULL       0.00526900       0.00289300      -0.00377200
P        2.73482824      10.30583114      12.41272193       0.00000000 NULL       0.00526900      -0.00289300       0.00377200
P        1.57968013       6.22994783       6.39356264       0.00000000 NULL      -0.00165700      -0.00027800       0.00406500
P        1.57968013       6.45388665      16.37647999       0.00000000 NULL      -0.00165700       0.00027800      -0.00406500
P       -1.00414740       6.45388665       6.39356264       0.00000000 NULL      -0.00165700       0.00027800       0.00406500
P       -1.00414740       6.22994783      16.37647999       0.00000000 NULL      -0.00165700      -0.00027800      -0.00406500
P        1.54653464       6.35394505       3.21366519       0.00000000 NULL      -0.00602200       0.00355400       0.00429300
P        1.54653464       6.32988943      19.55637745       0.00000000 NULL      -0.00602200      -0.00355400      -0.00429300
P       -1.03729288       6.32988943       3.21366519       0.00000000 NULL      -0.00602200      -0.00355400       0.00429300
P       -1.03729288       6.35394505      19.55637745       0.00000000 NULL      -0.00602200       0.00355400      -0.00429300
