32
Lattice="6.921469271718061 0.0 0.0 0.0 6.921469271718061 0.0 0.0 0.0 12.47368345858422" Properties=species:S:1:pos:R:3:initial_magmoms:R:1:castep_labels:S:1:forces:R:3 n_minim_iter=10 energy=-168.997138986198 stress="1.3822569688900469e-05 -0.0 -0.0 -0.0 1.380583534303013e-05 -0.0 -0.0 -0.0 2.3896645902844877e-05" free_energy=-168.997138986198 pbc="T T T"
P        2.26876731       5.89417936       0.31623881       0.00000000 NULL       0.00018500      -0.00624200      -0.00070800
P        4.65270197       1.02728991       0.31623881       0.00000000 NULL      -0.00018500       0.00624200      -0.00070800
P        5.89417936       4.65270197       6.55308054       0.00000000 NULL      -0.00624200      -0.00018500      -0.00070900
P        1.02728991       2.26876731       6.55308054       0.00000000 NULL       0.00624200       0.00018500      -0.00070900
P        6.91462815       1.97679544       3.06594835       0.00000000 NULL       0.00184000       0.00142600       0.00069100
P        0.00684112       4.94467383       3.06594835       0.00000000 NULL      -0.00183900      -0.00142600       0.00069100
P        1.97679544       0.00684112       9.30279008       0.00000000 NULL       0.00142600      -0.00183900       0.00069100
P        4.94467383       6.91462815       9.30279008       0.00000000 NULL      -0.00142600       0.00184000       0.00069100
P        2.22538674       5.60504050       6.21712357       0.00000000 NULL       0.00224300       0.00039800      -0.00084500
P        4.69608253       1.31642878       6.21712357       0.00000000 NULL      -0.00224300      -0.00039800      -0.00084500
P        5.60504050       4.69608253      12.45396530       0.00000000 NULL       0.00039800      -0.00224500      -0.00084700
P        1.31642878       2.22538674      12.45396530       0.00000000 NULL      -0.00039800       0.00224500      -0.00084700
P        1.67212334       5.05464937      10.74321719       0.00000000 NULL      -0.00247200       0.00193500      -0.00051800
P        5.24934593       1.86681990      10.74321719       0.00000000 NULL       0.00247200      -0.00193500      -0.00051800
P        5.05464937       5.24934593       4.50637546       0.00000000 NULL       0.00193500       0.00247200      -0.00051600
P        1.86681990       1.67212334       4.50637546       0.00000000 NULL      -0.00193500      -0.00247200      -0.00051600
P        6.33038812       0.94617494       7.59351756       0.00000000 NULL       0.00217300       0.00716600       0.00401600
P        0.59108115       5.97529433       7.59351756       0.00000000 NULL      -0.00217300      -0.00716600       0.00401600
P        0.94617494       0.59108115       1.35667583       0.00000000 NULL       0.00716600      -0.00217400       0.00401900
P        5.97529433       6.33038812       1.35667583       0.00000000 NULL      -0.00716600       0.00217400       0.00401900
P        4.28894631       4.97515232       8.02790853       0.00000000 NULL      -0.00787200      -0.00026000       0.00240600
P        2.63252296       1.94631695       8.02790853       0.00000000 NULL       0.00787200       0.00026000       0.00240600
P        4.97515232       2.63252296       1.79106680       0.00000000 NULL      -0.00026000       0.00787200       0.00240600
P        1.94631695       4.28894631       1.79106680       0.00000000 NULL       0.00026000      -0.00787200       0.00240600
P        5.48940549       7.48157204       4.34867292       0.00000000 NULL       0.00636000      -0.00573300      -0.00501500
P        1.43206378      -0.56010277       4.34867292       0.00000000 NULL      -0.00636000       0.00573300      -0.00501500
P        7.48157204       1.43206378      10.58551465       0.00000000 NULL      -0.00573300      -0.00636000      -0.00501600
P       -0.56010277       5.48940549      10.58551465       0.00000000 NULL       0.00573300       0.00636000      -0.00501600
P        1.14906648       3.16536719       9.29931994       0.00000000 NULL      -0.00409400       0.00437700      -0.00002800
P        5.77240280       3.75610209       9.29931994       0.00000000 NULL       0.00409400      -0.00437700      -0.00002800
P        3.16536719       5.77240280       3.06247821       0.00000000 NULL       0.00437700       0.00409400      -0.00002700
P        3.75610209       1.14906648       3.06247821       0.00000000 NULL      -0.00437700      -0.00409400      -0.00002700
