44
Lattice="5.14613010565958 1.8508066039681663e-16 0.0 -2.5730650528297905 10.192148847555648 0.0 0.0 0.0 17.58152914349045" Properties=species:S:1:pos:R:3:initial_magmoms:R:1:castep_labels:S:1:forces:R:3 n_minim_iter=19 energy=-238.769434563938 stress="-9.44528347393896e-06 0.0 0.0 0.0 7.059563193495135e-06 -0.0 0.0 -0.0 7.062816448423011e-05" free_energy=-238.769434563938 pbc="T T T"
P        4.00782291       1.40918515       1.28658343       0.00000000 NULL      -0.00025000      -0.00269600      -0.00429000
P       -1.43475786       8.78296369       1.28658343       0.00000000 NULL       0.00025000       0.00269600      -0.00429000
P        1.43475786       8.78296369       1.28658343       0.00000000 NULL      -0.00025000       0.00269600      -0.00429000
P        1.13830719       1.40918515       1.28658343       0.00000000 NULL       0.00025000      -0.00269600      -0.00429000
P        3.72542801       1.13608408      13.71272608       0.00000000 NULL      -0.00410100       0.00117000      -0.00308900
P       -1.15236296       9.05606476      13.71272608       0.00000000 NULL       0.00410100      -0.00117000      -0.00308900
P        1.15236296       9.05606476      13.71272608       0.00000000 NULL      -0.00410100      -0.00117000      -0.00308900
P        1.42070209       1.13608408      13.71272608       0.00000000 NULL       0.00410100       0.00117000      -0.00308900
P       -1.13082014       9.05728752       3.64326264       0.00000000 NULL       0.00293000       0.00545800       0.00248200
P        3.70388519       1.13486131       3.64326264       0.00000000 NULL      -0.00293000      -0.00545800       0.00248200
P        1.44224491       1.13486131       3.64326264       0.00000000 NULL       0.00292900      -0.00545800       0.00248200
P        1.13082014       9.05728752       3.64326264       0.00000000 NULL      -0.00292900       0.00545800       0.00248200
P       -1.44403370       6.21793451       5.90330559       0.00000000 NULL      -0.00082000      -0.00436600       0.00349800
P        4.01709875       3.97421433       5.90330559       0.00000000 NULL       0.00082000       0.00436600       0.00349900
P        1.12903135       3.97421433       5.90330559       0.00000000 NULL      -0.00082100       0.00436600       0.00349900
P        1.44403370       6.21793451       5.90330559       0.00000000 NULL       0.00082100      -0.00436600       0.00349900
P        1.13806675       3.96752467       3.52472570       0.00000000 NULL      -0.00380800       0.00240100      -0.00245300
P        1.43499829       6.22462417       3.52472570       0.00000000 NULL       0.00380800      -0.00240100      -0.00245300
P       -1.43499830       6.22462417       3.52472570       0.00000000 NULL      -0.00380800      -0.00240100      -0.00245300
P        4.00806335       3.96752467       3.52472570       0.00000000 NULL       0.00380800       0.00240100      -0.00245300
P        1.43276716       1.13806137       6.29211829       0.00000000 NULL      -0.00258900      -0.00240100      -0.00014500
P        1.14029789       9.05408747       6.29211829       0.00000000 NULL       0.00258800       0.00240100      -0.00014500
P       -1.14029790       9.05408747       6.29211829       0.00000000 NULL      -0.00258800       0.00240100      -0.00014500
P        3.71336294       1.13806137       6.29211829       0.00000000 NULL       0.00258800      -0.00240100      -0.00014500
P        1.14734473       1.13675607       8.59468988       0.00000000 NULL       0.00323300      -0.00019800      -0.00576900
P        1.42572032       9.05539277       8.59468988       0.00000000 NULL      -0.00323300       0.00019800      -0.00576900
P       -1.42572033       9.05539277       8.59468988       0.00000000 NULL       0.00323300       0.00019800      -0.00576900
P        3.99878537       1.13675607       8.59468988       0.00000000 NULL      -0.00323300      -0.00019800      -0.00576900
P       -1.43406675       9.06770621      16.48212546       0.00000000 NULL       0.00485500       0.00009000       0.00307300
P        4.00713180       1.12444263      16.48212546       0.00000000 NULL      -0.00485500      -0.00009000       0.00307300
P        1.13899830       1.12444263      16.48212546       0.00000000 NULL       0.00485500      -0.00009000       0.00307300
P        1.43406675       9.06770621      16.48212546       0.00000000 NULL      -0.00485500       0.00009000       0.00307300
P        1.47821100       6.17873074      11.10424481       0.00000000 NULL       0.00095700       0.00454400       0.00134000
P        1.09485405       4.01341810      11.10424481       0.00000000 NULL      -0.00095700      -0.00454400       0.00134000
P        4.05127605       4.01341810      11.10424481       0.00000000 NULL       0.00095700      -0.00454400       0.00134000
P       -1.47821100       6.17873074      11.10424481       0.00000000 NULL      -0.00095700       0.00454400       0.00134000
P        1.14093689       9.04765494      11.39653246       0.00000000 NULL       0.00615500       0.00312300       0.00508900
P        1.43212816       1.14449389      11.39653246       0.00000000 NULL      -0.00615500      -0.00312300       0.00508900
P        3.71400194       1.14449389      11.39653246       0.00000000 NULL       0.00615500      -0.00312300       0.00508900
P       -1.14093690       9.04765494      11.39653246       0.00000000 NULL      -0.00615500       0.00312300       0.00508900
P       -1.11918743       6.55724520       1.22025218       0.00000000 NULL       0.00255100       0.00100300       0.00026300
P        3.69225247       3.63490364       1.22025218       0.00000000 NULL      -0.00255100      -0.00100300       0.00026300
P        1.45387763       3.63490364       1.22025218       0.00000000 NULL       0.00255100      -0.00100300       0.00026300
P        1.11918742       6.55724520       1.22025218       0.00000000 NULL      -0.00255100       0.00100300       0.00026300
